2021-06-14T16:31:45+08:00


        *** GPGPU-Sim Simulator Version 3.2.2  [build 0] ***


GPGPU-Sim PTX: simulation mode 0 (can change with PTX_SIM_MODE_FUNC environment variable:
               1=functional simulation only, 0=detailed performance simulator)
GPGPU-Sim: Configuration options:

-network_mode                           1 # Interconnection network mode
-inter_config_file   config_fermi_islip.icnt # Interconnection network config file
-gpgpu_ptx_use_cuobjdump                    1 # Use cuobjdump to extract ptx and sass from binaries
-gpgpu_experimental_lib_support                    0 # Try to extract code from cuda libraries [Broken because of unknown cudaGetExportTable]
-gpgpu_ptx_convert_to_ptxplus                    0 # Convert SASS (native ISA) to ptxplus and run ptxplus
-gpgpu_ptx_force_max_capability                   20 # Force maximum compute capability
-gpgpu_ptx_inst_debug_to_file                    0 # Dump executed instructions' debug information to file
-gpgpu_ptx_inst_debug_file       inst_debug.txt # Executed instructions' debug output file
-gpgpu_ptx_inst_debug_thread_uid                    1 # Thread UID for executed instructions' debug output
-gpgpu_simd_model                       1 # 1 = post-dominator
-gpgpu_shader_core_pipeline              1536:32 # shader core pipeline config, i.e., {<nthread>:<warpsize>}
-gpgpu_tex_cache:l1  4:128:24,L:R:m:N:L,F:128:4,128:2 # per-shader L1 texture cache  (READ-ONLY) config  {<nsets>:<bsize>:<assoc>,<rep>:<wr>:<alloc>:<wr_alloc>,<mshr>:<N>:<merge>,<mq>:<rf>}
-gpgpu_const_cache:l1 64:64:2,L:R:f:N:L,A:2:32,4 # per-shader L1 constant memory cache  (READ-ONLY) config  {<nsets>:<bsize>:<assoc>,<rep>:<wr>:<alloc>:<wr_alloc>,<mshr>:<N>:<merge>,<mq>} 
-gpgpu_cache:il1     4:128:4,L:R:f:N:L,A:2:32,4 # shader L1 instruction cache config  {<nsets>:<bsize>:<assoc>,<rep>:<wr>:<alloc>:<wr_alloc>,<mshr>:<N>:<merge>,<mq>} 
-gpgpu_cache:dl1     32:128:4,L:L:m:N:H,A:32:8,8 # per-shader L1 data cache config  {<nsets>:<bsize>:<assoc>,<rep>:<wr>:<alloc>:<wr_alloc>,<mshr>:<N>:<merge>,<mq> | none}
-gpgpu_cache:dl1PrefL1                 none # per-shader L1 data cache config  {<nsets>:<bsize>:<assoc>,<rep>:<wr>:<alloc>:<wr_alloc>,<mshr>:<N>:<merge>,<mq> | none}
-gpgpu_cache:dl1PreShared                 none # per-shader L1 data cache config  {<nsets>:<bsize>:<assoc>,<rep>:<wr>:<alloc>:<wr_alloc>,<mshr>:<N>:<merge>,<mq> | none}
-gmem_skip_L1D                          0 # global memory access skip L1D cache (implements -Xptxas -dlcm=cg, default=no skip)
-gpgpu_perfect_mem                      0 # enable perfect memory mode (no cache miss)
-n_regfile_gating_group                    4 # group of lanes that should be read/written together)
-gpgpu_clock_gated_reg_file                    0 # enable clock gated reg file for power calculations
-gpgpu_clock_gated_lanes                    0 # enable clock gated lanes for power calculations
-gpgpu_shader_registers                32768 # Number of registers per shader core. Limits number of concurrent CTAs. (default 8192)
-gpgpu_shader_cta                       8 # Maximum number of concurrent CTAs in shader (default 8)
-gpgpu_num_cta_barriers                   16 # Maximum number of named barriers per CTA (default 16)
-gpgpu_n_clusters                      15 # number of processing clusters
-gpgpu_n_cores_per_cluster                   16 # number of simd cores per cluster
-gpgpu_n_cluster_ejection_buffer_size                    8 # number of packets in ejection buffer
-gpgpu_n_ldst_response_buffer_size                    2 # number of response packets in ld/st unit ejection buffer
-gpgpu_shmem_size                   16384 # Size of shared memory per shader core (default 16kB)
-gpgpu_shmem_size                   49152 # Size of shared memory per shader core (default 16kB)
-gpgpu_shmem_size_PrefL1                16384 # Size of shared memory per shader core (default 16kB)
-gpgpu_shmem_size_PrefShared                16384 # Size of shared memory per shader core (default 16kB)
-gpgpu_shmem_num_banks                   32 # Number of banks in the shared memory in each shader core (default 16)
-gpgpu_shmem_limited_broadcast                    0 # Limit shared memory to do one broadcast per cycle (default on)
-gpgpu_shmem_warp_parts                    1 # Number of portions a warp is divided into for shared memory bank conflict check 
-gpgpu_warpdistro_shader                   -1 # Specify which shader core to collect the warp size distribution from
-gpgpu_warp_issue_shader                    0 # Specify which shader core to collect the warp issue distribution from
-gpgpu_local_mem_map                    1 # Mapping from local memory space address to simulated GPU physical address space (default = enabled)
-gpgpu_num_reg_banks                   16 # Number of register banks (default = 8)
-gpgpu_reg_bank_use_warp_id                    0 # Use warp ID in mapping registers to banks (default = off)
-gpgpu_operand_collector_num_units_sp                    6 # number of collector units (default = 4)
-gpgpu_operand_collector_num_units_sfu                    8 # number of collector units (default = 4)
-gpgpu_operand_collector_num_units_mem                    2 # number of collector units (default = 2)
-gpgpu_operand_collector_num_units_gen                    0 # number of collector units (default = 0)
-gpgpu_operand_collector_num_in_ports_sp                    2 # number of collector unit in ports (default = 1)
-gpgpu_operand_collector_num_in_ports_sfu                    1 # number of collector unit in ports (default = 1)
-gpgpu_operand_collector_num_in_ports_mem                    1 # number of collector unit in ports (default = 1)
-gpgpu_operand_collector_num_in_ports_gen                    0 # number of collector unit in ports (default = 0)
-gpgpu_operand_collector_num_out_ports_sp                    2 # number of collector unit in ports (default = 1)
-gpgpu_operand_collector_num_out_ports_sfu                    1 # number of collector unit in ports (default = 1)
-gpgpu_operand_collector_num_out_ports_mem                    1 # number of collector unit in ports (default = 1)
-gpgpu_operand_collector_num_out_ports_gen                    0 # number of collector unit in ports (default = 0)
-gpgpu_coalesce_arch                   13 # Coalescing arch (default = 13, anything else is off for now)
-gpgpu_num_sched_per_core                    2 # Number of warp schedulers per core
-gpgpu_max_insn_issue_per_warp                    1 # Max number of instructions that can be issued per warp in one cycle by scheduler
-gpgpu_simt_core_sim_order                    1 # Select the simulation order of cores in a cluster (0=Fix, 1=Round-Robin)
-gpgpu_pipeline_widths        2,1,1,2,1,1,2 # Pipeline widths ID_OC_SP,ID_OC_SFU,ID_OC_MEM,OC_EX_SP,OC_EX_SFU,OC_EX_MEM,EX_WB
-gpgpu_num_sp_units                     2 # Number of SP units (default=1)
-gpgpu_num_sfu_units                    1 # Number of SF units (default=1)
-gpgpu_num_mem_units                    1 # Number if ldst units (default=1) WARNING: not hooked up to anything
-gpgpu_scheduler                      gto # Scheduler configuration: < lrr | gto | two_level_active > If two_level_active:<num_active_warps>:<inner_prioritization>:<outer_prioritization>For complete list of prioritization values see shader.h enum scheduler_prioritization_typeDefault: gto
-gpgpu_dram_scheduler                    1 # 0 = fifo, 1 = FR-FCFS (defaul)
-gpgpu_dram_partition_queues              8:8:8:8 # i2$:$2d:d2$:$2i
-l2_ideal                               0 # Use a ideal L2 cache that always hit
-gpgpu_cache:dl2     64:128:8,L:B:m:W:L,A:32:4,4:0,32 # unified banked L2 data cache config  {<nsets>:<bsize>:<assoc>,<rep>:<wr>:<alloc>:<wr_alloc>,<mshr>:<N>:<merge>,<mq>}
-gpgpu_cache:dl2_texture_only                    0 # L2 cache used for texture only
-gpgpu_n_mem                            6 # number of memory modules (e.g. memory controllers) in gpu
-gpgpu_n_sub_partition_per_mchannel                    2 # number of memory subpartition in each memory module
-gpgpu_n_mem_per_ctrlr                    2 # number of memory chips per memory controller
-gpgpu_memlatency_stat                   14 # track and display latency statistics 0x2 enables MC, 0x4 enables queue logs
-gpgpu_frfcfs_dram_sched_queue_size                   16 # 0 = unlimited (default); # entries per chip
-gpgpu_dram_return_queue_size                  116 # 0 = unlimited (default); # entries per chip
-gpgpu_dram_buswidth                    4 # default = 4 bytes (8 bytes per cycle at DDR)
-gpgpu_dram_burst_length                    8 # Burst length of each DRAM request (default = 4 data bus cycle)
-dram_data_command_freq_ratio                    4 # Frequency ratio between DRAM data bus and command bus (default = 2 times, i.e. DDR)
-gpgpu_dram_timing_opt nbk=16:CCD=2:RRD=6:RCD=12:RAS=28:RP=12:RC=40: CL=12:WL=4:CDLR=5:WR=12:nbkgrp=4:CCDL=3:RTPL=2 # DRAM timing parameters = {nbk:tCCD:tRRD:tRCD:tRAS:tRP:tRC:CL:WL:tCDLR:tWR:nbkgrp:tCCDL:tRTPL}
-rop_latency                          120 # ROP queue latency (default 85)
-dram_latency                         100 # DRAM latency (default 30)
-gpgpu_mem_addr_mapping dramid@8;00000000.00000000.00000000.00000000.0000RRRR.RRRRRRRR.BBBCCCCB.CCSSSSSS # mapping memory address to dram model {dramid@<start bit>;<memory address map>}
-gpgpu_mem_addr_test                    0 # run sweep test to check address mapping for aliased address
-gpgpu_mem_address_mask                    1 # 0 = old addressing mask, 1 = new addressing mask, 2 = new add. mask + flipped bank sel and chip sel bits
-gpuwattch_xml_file  gpuwattch_gtx480.xml # GPUWattch XML file
-power_simulation_enabled                    1 # Turn on power simulator (1=On, 0=Off)
-power_per_cycle_dump                    0 # Dump detailed power output each cycle
-power_trace_enabled                    0 # produce a file for the power trace (1=On, 0=Off)
-power_trace_zlevel                     6 # Compression level of the power trace output log (0=no comp, 9=highest)
-steady_power_levels_enabled                    0 # produce a file for the steady power levels (1=On, 0=Off)
-steady_state_definition                  8:4 # allowed deviation:number of samples
-gpgpu_max_cycle                        0 # terminates gpu simulation early (0 = no limit)
-gpgpu_max_insn                         0 # terminates gpu simulation early (0 = no limit)
-gpgpu_max_cta                          0 # terminates gpu simulation early (0 = no limit)
-gpgpu_runtime_stat                   500 # display runtime statistics such as dram utilization {<freq>:<flag>}
-liveness_message_freq                    1 # Minimum number of seconds between simulation liveness messages (0 = always print)
-gpgpu_flush_l1_cache                    0 # Flush L1 cache at the end of each kernel call
-gpgpu_flush_l2_cache                    0 # Flush L2 cache at the end of each kernel call
-gpgpu_deadlock_detect                    1 # Stop the simulation at deadlock (1=on (default), 0=off)
-gpgpu_ptx_instruction_classification                    0 # if enabled will classify ptx instruction types per kernel (Max 255 kernels now)
-gpgpu_ptx_sim_mode                     0 # Select between Performance (default) or Functional simulation (1)
-gpgpu_clock_domains 700.0:700.0:700.0:924.0 # Clock Domain Frequencies in MhZ {<Core Clock>:<ICNT Clock>:<L2 Clock>:<DRAM Clock>}
-gpgpu_max_concurrent_kernel                    8 # maximum kernels that can run concurrently on GPU
-gpgpu_cflog_interval                    0 # Interval between each snapshot in control flow logger
-visualizer_enabled                     0 # Turn on visualizer output (1=On, 0=Off)
-visualizer_outputfile                 NULL # Specifies the output log file for visualizer
-visualizer_zlevel                      6 # Compression level of the visualizer output log (0=no comp, 9=highest)
-trace_enabled                          0 # Turn on traces
-trace_components                    none # comma seperated list of traces to enable. Complete list found in trace_streams.tup. Default none
-trace_sampling_core                    0 # The core which is printed using CORE_DPRINTF. Default 0
-trace_sampling_memory_partition                   -1 # The memory partition which is printed using MEMPART_DPRINTF. Default -1 (i.e. all)
-enable_ptx_file_line_stats                    1 # Turn on PTX source line statistic profiling. (1 = On)
-ptx_line_stats_filename gpgpu_inst_stats.txt # Output file for PTX source line statistics.
-save_embedded_ptx                      0 # saves ptx files embedded in binary as <n>.ptx
-keep                                   0 # keep intermediate files created by GPGPU-Sim when interfacing with external programs
-gpgpu_ptx_save_converted_ptxplus                    0 # Saved converted ptxplus to a file
-ptx_opcode_latency_int         4,13,4,5,145 # Opcode latencies for integers <ADD,MAX,MUL,MAD,DIV>Default 1,1,19,25,145
-ptx_opcode_latency_fp          4,13,4,5,39 # Opcode latencies for single precision floating points <ADD,MAX,MUL,MAD,DIV>Default 1,1,1,1,30
-ptx_opcode_latency_dp         8,19,8,8,330 # Opcode latencies for double precision floating points <ADD,MAX,MUL,MAD,DIV>Default 8,8,8,8,335
-ptx_opcode_initiation_int            1,2,2,1,8 # Opcode initiation intervals for integers <ADD,MAX,MUL,MAD,DIV>Default 1,1,4,4,32
-ptx_opcode_initiation_fp            1,2,1,1,4 # Opcode initiation intervals for single precision floating points <ADD,MAX,MUL,MAD,DIV>Default 1,1,1,1,5
-ptx_opcode_initiation_dp         8,16,8,8,130 # Opcode initiation intervals for double precision floating points <ADD,MAX,MUL,MAD,DIV>Default 8,8,8,8,130
DRAM Timing Options:
nbk                                    16 # number of banks
CCD                                     2 # column to column delay
RRD                                     6 # minimal delay between activation of rows in different banks
RCD                                    12 # row to column delay
RAS                                    28 # time needed to activate row
RP                                     12 # time needed to precharge (deactivate) row
RC                                     40 # row cycle time
CDLR                                    5 # switching from write to read (changes tWTR)
WR                                     12 # last data-in to row precharge
CL                                     12 # CAS latency
WL                                      4 # Write latency
nbkgrp                                  4 # number of bank groups
CCDL                                    3 # column to column delay between accesses to different bank groups
RTPL                                    2 # read to precharge delay between accesses to different bank groups
Total number of memory sub partition = 12
addr_dec_mask[CHIP]  = 0000000000000000 	high:64 low:0
addr_dec_mask[BK]    = 000000000000e100 	high:16 low:8
addr_dec_mask[ROW]   = 000000000fff0000 	high:28 low:16
addr_dec_mask[COL]   = 0000000000001eff 	high:13 low:0
addr_dec_mask[BURST] = 000000000000003f 	high:6 low:0
sub_partition_id_mask = 0000000000000100
GPGPU-Sim uArch: clock freqs: 700000000.000000:700000000.000000:700000000.000000:924000000.000000
GPGPU-Sim uArch: clock periods: 0.00000000142857142857:0.00000000142857142857:0.00000000142857142857:0.00000000108225108225
*** Initializing Memory Statistics ***
GPGPU-Sim uArch: interconnect node map (shaderID+MemID to icntID)
GPGPU-Sim uArch: Memory nodes ID start from index: 15
GPGPU-Sim uArch:    0   1   2   3   4
GPGPU-Sim uArch:    5   6   7   8   9
GPGPU-Sim uArch:   10  11  12  13  14
GPGPU-Sim uArch:   15  16  17  18  19
GPGPU-Sim uArch:   20  21  22  23  24
GPGPU-Sim uArch:   25  26
GPGPU-Sim uArch: interconnect node reverse map (icntID to shaderID+MemID)
GPGPU-Sim uArch: Memory nodes start from ID: 15
GPGPU-Sim uArch:    0   1   2   3   4
GPGPU-Sim uArch:    5   6   7   8   9
GPGPU-Sim uArch:   10  11  12  13  14
GPGPU-Sim uArch:   15  16  17  18  19
GPGPU-Sim uArch:   20  21  22  23  24
GPGPU-Sim uArch:   25  26
d25d2fa2942cd04f46ce64f414d879cc  /home/ly/下载/test/gpgpu-sim_distribution-master/ispass2009-benchmarks-master_2/bin/release/MM
GPGPU-Sim uArch: performance model initialization complete.
GPGPU-Sim PTX: __cudaRegisterFatBinary, fat_cubin_handle = 1, filename=mm.cu
self exe links to: /home/ly/下载/test/gpgpu-sim_distribution-master/ispass2009-benchmarks-master_2/bin/release/MM
Running md5sum using "md5sum /home/ly/下载/test/gpgpu-sim_distribution-master/ispass2009-benchmarks-master_2/bin/release/MM "
Running cuobjdump using "$CUDA_INSTALL_PATH/bin/cuobjdump -ptx -elf -sass /home/ly/下载/test/gpgpu-sim_distribution-master/ispass2009-benchmarks-master_2/bin/release/MM > _cuobjdump_complete_output_kJh8Bx"
Parsing file _cuobjdump_complete_output_kJh8Bx
######### cuobjdump parser ########
## Adding new section ELF
Adding arch: sm_10
Adding identifier: mm.cu
## Adding new section PTX
Adding ptx filename: _cuobjdump_1.ptx
Adding arch: sm_10
Adding identifier: mm.cu
## Adding new section ELF
Adding arch: sm_20
Adding identifier: mm.cu
## Adding new section PTX
Adding ptx filename: _cuobjdump_2.ptx
Adding arch: sm_20
Adding identifier: mm.cu
Done parsing!!!
GPGPU-Sim PTX: __cudaRegisterFunction _Z14matrix_mul_gpuPiS_S_i : hostFun 0x0x400ce0, fat_cubin_handle = 1
GPGPU-Sim PTX: instruction assembly for function '_Z14matrix_mul_gpuPiS_S_i'...   done.
GPGPU-Sim PTX: finding reconvergence points for '_Z14matrix_mul_gpuPiS_S_i'...
GPGPU-Sim PTX: Finding dominators for '_Z14matrix_mul_gpuPiS_S_i'...
GPGPU-Sim PTX: Finding immediate dominators for '_Z14matrix_mul_gpuPiS_S_i'...
GPGPU-Sim PTX: Finding postdominators for '_Z14matrix_mul_gpuPiS_S_i'...
GPGPU-Sim PTX: Finding immediate postdominators for '_Z14matrix_mul_gpuPiS_S_i'...
GPGPU-Sim PTX: pre-decoding instructions for '_Z14matrix_mul_gpuPiS_S_i'...
GPGPU-Sim PTX: reconvergence points for _Z14matrix_mul_gpuPiS_S_i...
GPGPU-Sim PTX:  1 (potential) branch divergence @  PC=0x048 (_1.ptx:71) @%p1 bra $Lt_0_2306;
GPGPU-Sim PTX:    immediate post dominator      @  PC=0x170 (_1.ptx:114) ld.param.u64 %rd11, [__cudaparm__Z14matrix_mul_gpuPiS_S_i_P];
GPGPU-Sim PTX:  2 (potential) branch divergence @  PC=0x130 (_1.ptx:103) @%p2 bra $Lt_0_1794;
GPGPU-Sim PTX:    immediate post dominator      @  PC=0x138 (_1.ptx:104) bra.uni $Lt_0_1282;
GPGPU-Sim PTX:  3 (potential) branch divergence @  PC=0x138 (_1.ptx:104) bra.uni $Lt_0_1282;
GPGPU-Sim PTX:    immediate post dominator      @  PC=0x170 (_1.ptx:114) ld.param.u64 %rd11, [__cudaparm__Z14matrix_mul_gpuPiS_S_i_P];
GPGPU-Sim PTX: ... end of reconvergence points for _Z14matrix_mul_gpuPiS_S_i
GPGPU-Sim PTX: ... done pre-decoding instructions for '_Z14matrix_mul_gpuPiS_S_i'.
GPGPU-Sim PTX: finished parsing EMBEDDED .ptx file _1.ptx
Adding _cuobjdump_2.ptx with cubin handle 1
GPGPU-Sim PTX: extracting embedded .ptx to temporary file "_ptx_8CSbHT"
Running: cat _ptx_8CSbHT | sed 's/.version 1.5/.version 1.4/' | sed 's/, texmode_independent//' | sed 's/\(\.extern \.const\[1\] .b8 \w\+\)\[\]/\1\[1\]/' | sed 's/const\[.\]/const\[0\]/g' > _ptx2_A14fMf
GPGPU-Sim PTX: generating ptxinfo using "$CUDA_INSTALL_PATH/bin/ptxas --gpu-name=sm_20 -v _ptx2_A14fMf --output-file  /dev/null 2> _ptx_8CSbHTinfo"
GPGPU-Sim PTX: Kernel '_Z14matrix_mul_gpuPiS_S_i' : regs=14, lmem=0, smem=0, cmem=60
GPGPU-Sim PTX: removing ptxinfo using "rm -f _ptx_8CSbHT _ptx2_A14fMf _ptx_8CSbHTinfo"
GPGPU-Sim PTX: loading globals with explicit initializers... 
GPGPU-Sim PTX: finished loading globals (0 bytes total).
GPGPU-Sim PTX: loading constants with explicit initializers...  done.
Block(10,10)   Grid(30,15).

GPGPU-Sim PTX: cudaLaunch for 0x0x400ce0 (mode=performance simulation) on stream 0
GPGPU-Sim PTX: pushing kernel '_Z14matrix_mul_gpuPiS_S_i' to stream 0, gridDim= (30,15,1) blockDim = (10,10,1) 
kernel '_Z14matrix_mul_gpuPiS_S_i' transfer to GPU hardware scheduler
GPGPU-Sim uArch: Shader 16 bind to kernel 1 '_Z14matrix_mul_gpuPiS_S_i'
GPGPU-Sim uArch: CTA/core = 8, limited by: cta_limit
GPGPU-Sim uArch: core: 16, cta: 0 initialized @(1,0)
GPGPU-Sim uArch: Shader 32 bind to kernel 1 '_Z14matrix_mul_gpuPiS_S_i'
GPGPU-Sim uArch: core: 32, cta: 0 initialized @(1,0)
GPGPU-Sim uArch: Shader 48 bind to kernel 1 '_Z14matrix_mul_gpuPiS_S_i'
GPGPU-Sim uArch: core: 48, cta: 0 initialized @(1,0)
GPGPU-Sim uArch: Shader 64 bind to kernel 1 '_Z14matrix_mul_gpuPiS_S_i'
GPGPU-Sim uArch: core: 64, cta: 0 initialized @(1,0)
GPGPU-Sim uArch: Shader 80 bind to kernel 1 '_Z14matrix_mul_gpuPiS_S_i'
GPGPU-Sim uArch: core: 80, cta: 0 initialized @(1,0)
GPGPU-Sim uArch: Shader 96 bind to kernel 1 '_Z14matrix_mul_gpuPiS_S_i'
GPGPU-Sim uArch: core: 96, cta: 0 initialized @(1,0)
GPGPU-Sim uArch: Shader 112 bind to kernel 1 '_Z14matrix_mul_gpuPiS_S_i'
GPGPU-Sim uArch: core:112, cta: 0 initialized @(1,0)
GPGPU-Sim uArch: Shader 128 bind to kernel 1 '_Z14matrix_mul_gpuPiS_S_i'
GPGPU-Sim uArch: core:128, cta: 0 initialized @(1,0)
GPGPU-Sim uArch: Shader 144 bind to kernel 1 '_Z14matrix_mul_gpuPiS_S_i'
GPGPU-Sim uArch: core:144, cta: 0 initialized @(1,0)
GPGPU-Sim uArch: Shader 160 bind to kernel 1 '_Z14matrix_mul_gpuPiS_S_i'
GPGPU-Sim uArch: core:160, cta: 0 initialized @(1,0)
GPGPU-Sim uArch: Shader 176 bind to kernel 1 '_Z14matrix_mul_gpuPiS_S_i'
GPGPU-Sim uArch: core:176, cta: 0 initialized @(1,0)
GPGPU-Sim uArch: Shader 192 bind to kernel 1 '_Z14matrix_mul_gpuPiS_S_i'
GPGPU-Sim uArch: core:192, cta: 0 initialized @(1,0)
GPGPU-Sim uArch: Shader 208 bind to kernel 1 '_Z14matrix_mul_gpuPiS_S_i'
GPGPU-Sim uArch: core:208, cta: 0 initialized @(1,0)
GPGPU-Sim uArch: Shader 224 bind to kernel 1 '_Z14matrix_mul_gpuPiS_S_i'
GPGPU-Sim uArch: core:224, cta: 0 initialized @(1,0)
GPGPU-Sim uArch: Shader 0 bind to kernel 1 '_Z14matrix_mul_gpuPiS_S_i'
GPGPU-Sim uArch: core:  0, cta: 0 initialized @(1,0)
GPGPU-Sim uArch: Shader 17 bind to kernel 1 '_Z14matrix_mul_gpuPiS_S_i'
GPGPU-Sim uArch: core: 17, cta: 0 initialized @(2,0)
GPGPU-Sim uArch: Shader 33 bind to kernel 1 '_Z14matrix_mul_gpuPiS_S_i'
GPGPU-Sim uArch: core: 33, cta: 0 initialized @(2,0)
GPGPU-Sim uArch: Shader 49 bind to kernel 1 '_Z14matrix_mul_gpuPiS_S_i'
GPGPU-Sim uArch: core: 49, cta: 0 initialized @(2,0)
GPGPU-Sim uArch: Shader 65 bind to kernel 1 '_Z14matrix_mul_gpuPiS_S_i'
GPGPU-Sim uArch: core: 65, cta: 0 initialized @(2,0)
GPGPU-Sim uArch: Shader 81 bind to kernel 1 '_Z14matrix_mul_gpuPiS_S_i'
GPGPU-Sim uArch: core: 81, cta: 0 initialized @(2,0)
GPGPU-Sim uArch: Shader 97 bind to kernel 1 '_Z14matrix_mul_gpuPiS_S_i'
GPGPU-Sim uArch: core: 97, cta: 0 initialized @(2,0)
GPGPU-Sim uArch: Shader 113 bind to kernel 1 '_Z14matrix_mul_gpuPiS_S_i'
GPGPU-Sim uArch: core:113, cta: 0 initialized @(2,0)
GPGPU-Sim uArch: Shader 129 bind to kernel 1 '_Z14matrix_mul_gpuPiS_S_i'
GPGPU-Sim uArch: core:129, cta: 0 initialized @(2,0)
GPGPU-Sim uArch: Shader 145 bind to kernel 1 '_Z14matrix_mul_gpuPiS_S_i'
GPGPU-Sim uArch: core:145, cta: 0 initialized @(2,0)
GPGPU-Sim uArch: Shader 161 bind to kernel 1 '_Z14matrix_mul_gpuPiS_S_i'
GPGPU-Sim uArch: core:161, cta: 0 initialized @(2,0)
GPGPU-Sim uArch: Shader 177 bind to kernel 1 '_Z14matrix_mul_gpuPiS_S_i'
GPGPU-Sim uArch: core:177, cta: 0 initialized @(2,0)
GPGPU-Sim uArch: Shader 193 bind to kernel 1 '_Z14matrix_mul_gpuPiS_S_i'
GPGPU-Sim uArch: core:193, cta: 0 initialized @(2,0)
GPGPU-Sim uArch: Shader 209 bind to kernel 1 '_Z14matrix_mul_gpuPiS_S_i'
GPGPU-Sim uArch: core:209, cta: 0 initialized @(2,0)
GPGPU-Sim uArch: Shader 225 bind to kernel 1 '_Z14matrix_mul_gpuPiS_S_i'
GPGPU-Sim uArch: core:225, cta: 0 initialized @(2,0)
GPGPU-Sim uArch: Shader 1 bind to kernel 1 '_Z14matrix_mul_gpuPiS_S_i'
GPGPU-Sim uArch: core:  1, cta: 0 initialized @(2,0)
GPGPU-Sim uArch: Shader 18 bind to kernel 1 '_Z14matrix_mul_gpuPiS_S_i'
GPGPU-Sim uArch: core: 18, cta: 0 initialized @(3,0)
GPGPU-Sim uArch: Shader 34 bind to kernel 1 '_Z14matrix_mul_gpuPiS_S_i'
GPGPU-Sim uArch: core: 34, cta: 0 initialized @(3,0)
GPGPU-Sim uArch: Shader 50 bind to kernel 1 '_Z14matrix_mul_gpuPiS_S_i'
GPGPU-Sim uArch: core: 50, cta: 0 initialized @(3,0)
GPGPU-Sim uArch: Shader 66 bind to kernel 1 '_Z14matrix_mul_gpuPiS_S_i'
GPGPU-Sim uArch: core: 66, cta: 0 initialized @(3,0)
GPGPU-Sim uArch: Shader 82 bind to kernel 1 '_Z14matrix_mul_gpuPiS_S_i'
GPGPU-Sim uArch: core: 82, cta: 0 initialized @(3,0)
GPGPU-Sim uArch: Shader 98 bind to kernel 1 '_Z14matrix_mul_gpuPiS_S_i'
GPGPU-Sim uArch: core: 98, cta: 0 initialized @(3,0)
GPGPU-Sim uArch: Shader 114 bind to kernel 1 '_Z14matrix_mul_gpuPiS_S_i'
GPGPU-Sim uArch: core:114, cta: 0 initialized @(3,0)
GPGPU-Sim uArch: Shader 130 bind to kernel 1 '_Z14matrix_mul_gpuPiS_S_i'
GPGPU-Sim uArch: core:130, cta: 0 initialized @(3,0)
GPGPU-Sim uArch: Shader 146 bind to kernel 1 '_Z14matrix_mul_gpuPiS_S_i'
GPGPU-Sim uArch: core:146, cta: 0 initialized @(3,0)
GPGPU-Sim uArch: Shader 162 bind to kernel 1 '_Z14matrix_mul_gpuPiS_S_i'
GPGPU-Sim uArch: core:162, cta: 0 initialized @(3,0)
GPGPU-Sim uArch: Shader 178 bind to kernel 1 '_Z14matrix_mul_gpuPiS_S_i'
GPGPU-Sim uArch: core:178, cta: 0 initialized @(3,0)
GPGPU-Sim uArch: Shader 194 bind to kernel 1 '_Z14matrix_mul_gpuPiS_S_i'
GPGPU-Sim uArch: core:194, cta: 0 initialized @(3,0)
GPGPU-Sim uArch: Shader 210 bind to kernel 1 '_Z14matrix_mul_gpuPiS_S_i'
GPGPU-Sim uArch: core:210, cta: 0 initialized @(3,0)
GPGPU-Sim uArch: Shader 226 bind to kernel 1 '_Z14matrix_mul_gpuPiS_S_i'
GPGPU-Sim uArch: core:226, cta: 0 initialized @(3,0)
GPGPU-Sim uArch: Shader 2 bind to kernel 1 '_Z14matrix_mul_gpuPiS_S_i'
GPGPU-Sim uArch: core:  2, cta: 0 initialized @(3,0)
GPGPU-Sim uArch: Shader 19 bind to kernel 1 '_Z14matrix_mul_gpuPiS_S_i'
GPGPU-Sim uArch: core: 19, cta: 0 initialized @(4,0)
GPGPU-Sim uArch: Shader 35 bind to kernel 1 '_Z14matrix_mul_gpuPiS_S_i'
GPGPU-Sim uArch: core: 35, cta: 0 initialized @(4,0)
GPGPU-Sim uArch: Shader 51 bind to kernel 1 '_Z14matrix_mul_gpuPiS_S_i'
GPGPU-Sim uArch: core: 51, cta: 0 initialized @(4,0)
GPGPU-Sim uArch: Shader 67 bind to kernel 1 '_Z14matrix_mul_gpuPiS_S_i'
GPGPU-Sim uArch: core: 67, cta: 0 initialized @(4,0)
GPGPU-Sim uArch: Shader 83 bind to kernel 1 '_Z14matrix_mul_gpuPiS_S_i'
GPGPU-Sim uArch: core: 83, cta: 0 initialized @(4,0)
GPGPU-Sim uArch: Shader 99 bind to kernel 1 '_Z14matrix_mul_gpuPiS_S_i'
GPGPU-Sim uArch: core: 99, cta: 0 initialized @(4,0)
GPGPU-Sim uArch: Shader 115 bind to kernel 1 '_Z14matrix_mul_gpuPiS_S_i'
GPGPU-Sim uArch: core:115, cta: 0 initialized @(4,0)
GPGPU-Sim uArch: Shader 131 bind to kernel 1 '_Z14matrix_mul_gpuPiS_S_i'
GPGPU-Sim uArch: core:131, cta: 0 initialized @(4,0)
GPGPU-Sim uArch: Shader 147 bind to kernel 1 '_Z14matrix_mul_gpuPiS_S_i'
GPGPU-Sim uArch: core:147, cta: 0 initialized @(4,0)
GPGPU-Sim uArch: Shader 163 bind to kernel 1 '_Z14matrix_mul_gpuPiS_S_i'
GPGPU-Sim uArch: core:163, cta: 0 initialized @(4,0)
GPGPU-Sim uArch: Shader 179 bind to kernel 1 '_Z14matrix_mul_gpuPiS_S_i'
GPGPU-Sim uArch: core:179, cta: 0 initialized @(4,0)
GPGPU-Sim uArch: Shader 195 bind to kernel 1 '_Z14matrix_mul_gpuPiS_S_i'
GPGPU-Sim uArch: core:195, cta: 0 initialized @(4,0)
GPGPU-Sim uArch: Shader 211 bind to kernel 1 '_Z14matrix_mul_gpuPiS_S_i'
GPGPU-Sim uArch: core:211, cta: 0 initialized @(4,0)
GPGPU-Sim uArch: Shader 227 bind to kernel 1 '_Z14matrix_mul_gpuPiS_S_i'
GPGPU-Sim uArch: core:227, cta: 0 initialized @(4,0)
GPGPU-Sim uArch: Shader 3 bind to kernel 1 '_Z14matrix_mul_gpuPiS_S_i'
GPGPU-Sim uArch: core:  3, cta: 0 initialized @(4,0)
GPGPU-Sim uArch: Shader 20 bind to kernel 1 '_Z14matrix_mul_gpuPiS_S_i'
GPGPU-Sim uArch: core: 20, cta: 0 initialized @(5,0)
GPGPU-Sim uArch: Shader 36 bind to kernel 1 '_Z14matrix_mul_gpuPiS_S_i'
GPGPU-Sim uArch: core: 36, cta: 0 initialized @(5,0)
GPGPU-Sim uArch: Shader 52 bind to kernel 1 '_Z14matrix_mul_gpuPiS_S_i'
GPGPU-Sim uArch: core: 52, cta: 0 initialized @(5,0)
GPGPU-Sim uArch: Shader 68 bind to kernel 1 '_Z14matrix_mul_gpuPiS_S_i'
GPGPU-Sim uArch: core: 68, cta: 0 initialized @(5,0)
GPGPU-Sim uArch: Shader 84 bind to kernel 1 '_Z14matrix_mul_gpuPiS_S_i'
GPGPU-Sim uArch: core: 84, cta: 0 initialized @(5,0)
GPGPU-Sim uArch: Shader 100 bind to kernel 1 '_Z14matrix_mul_gpuPiS_S_i'
GPGPU-Sim uArch: core:100, cta: 0 initialized @(5,0)
GPGPU-Sim uArch: Shader 116 bind to kernel 1 '_Z14matrix_mul_gpuPiS_S_i'
GPGPU-Sim uArch: core:116, cta: 0 initialized @(5,0)
GPGPU-Sim uArch: Shader 132 bind to kernel 1 '_Z14matrix_mul_gpuPiS_S_i'
GPGPU-Sim uArch: core:132, cta: 0 initialized @(5,0)
GPGPU-Sim uArch: Shader 148 bind to kernel 1 '_Z14matrix_mul_gpuPiS_S_i'
GPGPU-Sim uArch: core:148, cta: 0 initialized @(5,0)
GPGPU-Sim uArch: Shader 164 bind to kernel 1 '_Z14matrix_mul_gpuPiS_S_i'
GPGPU-Sim uArch: core:164, cta: 0 initialized @(5,0)
GPGPU-Sim uArch: Shader 180 bind to kernel 1 '_Z14matrix_mul_gpuPiS_S_i'
GPGPU-Sim uArch: core:180, cta: 0 initialized @(5,0)
GPGPU-Sim uArch: Shader 196 bind to kernel 1 '_Z14matrix_mul_gpuPiS_S_i'
GPGPU-Sim uArch: core:196, cta: 0 initialized @(5,0)
GPGPU-Sim uArch: Shader 212 bind to kernel 1 '_Z14matrix_mul_gpuPiS_S_i'
GPGPU-Sim uArch: core:212, cta: 0 initialized @(5,0)
GPGPU-Sim uArch: Shader 228 bind to kernel 1 '_Z14matrix_mul_gpuPiS_S_i'
GPGPU-Sim uArch: core:228, cta: 0 initialized @(5,0)
GPGPU-Sim uArch: Shader 4 bind to kernel 1 '_Z14matrix_mul_gpuPiS_S_i'
GPGPU-Sim uArch: core:  4, cta: 0 initialized @(5,0)
GPGPU-Sim uArch: Shader 21 bind to kernel 1 '_Z14matrix_mul_gpuPiS_S_i'
GPGPU-Sim uArch: core: 21, cta: 0 initialized @(6,0)
GPGPU-Sim uArch: Shader 37 bind to kernel 1 '_Z14matrix_mul_gpuPiS_S_i'
GPGPU-Sim uArch: core: 37, cta: 0 initialized @(6,0)
GPGPU-Sim uArch: Shader 53 bind to kernel 1 '_Z14matrix_mul_gpuPiS_S_i'
GPGPU-Sim uArch: core: 53, cta: 0 initialized @(6,0)
GPGPU-Sim uArch: Shader 69 bind to kernel 1 '_Z14matrix_mul_gpuPiS_S_i'
GPGPU-Sim uArch: core: 69, cta: 0 initialized @(6,0)
GPGPU-Sim uArch: Shader 85 bind to kernel 1 '_Z14matrix_mul_gpuPiS_S_i'
GPGPU-Sim uArch: core: 85, cta: 0 initialized @(6,0)
GPGPU-Sim uArch: Shader 101 bind to kernel 1 '_Z14matrix_mul_gpuPiS_S_i'
GPGPU-Sim uArch: core:101, cta: 0 initialized @(6,0)
GPGPU-Sim uArch: Shader 117 bind to kernel 1 '_Z14matrix_mul_gpuPiS_S_i'
GPGPU-Sim uArch: core:117, cta: 0 initialized @(6,0)
GPGPU-Sim uArch: Shader 133 bind to kernel 1 '_Z14matrix_mul_gpuPiS_S_i'
GPGPU-Sim uArch: core:133, cta: 0 initialized @(6,0)
GPGPU-Sim uArch: Shader 149 bind to kernel 1 '_Z14matrix_mul_gpuPiS_S_i'
GPGPU-Sim uArch: core:149, cta: 0 initialized @(6,0)
GPGPU-Sim uArch: Shader 165 bind to kernel 1 '_Z14matrix_mul_gpuPiS_S_i'
GPGPU-Sim uArch: core:165, cta: 0 initialized @(6,0)
GPGPU-Sim uArch: Shader 181 bind to kernel 1 '_Z14matrix_mul_gpuPiS_S_i'
GPGPU-Sim uArch: core:181, cta: 0 initialized @(6,0)
GPGPU-Sim uArch: Shader 197 bind to kernel 1 '_Z14matrix_mul_gpuPiS_S_i'
GPGPU-Sim uArch: core:197, cta: 0 initialized @(6,0)
GPGPU-Sim uArch: Shader 213 bind to kernel 1 '_Z14matrix_mul_gpuPiS_S_i'
GPGPU-Sim uArch: core:213, cta: 0 initialized @(6,0)
GPGPU-Sim uArch: Shader 229 bind to kernel 1 '_Z14matrix_mul_gpuPiS_S_i'
GPGPU-Sim uArch: core:229, cta: 0 initialized @(6,0)
GPGPU-Sim uArch: Shader 5 bind to kernel 1 '_Z14matrix_mul_gpuPiS_S_i'
GPGPU-Sim uArch: core:  5, cta: 0 initialized @(6,0)
GPGPU-Sim uArch: Shader 22 bind to kernel 1 '_Z14matrix_mul_gpuPiS_S_i'
GPGPU-Sim uArch: core: 22, cta: 0 initialized @(7,0)
GPGPU-Sim uArch: Shader 38 bind to kernel 1 '_Z14matrix_mul_gpuPiS_S_i'
GPGPU-Sim uArch: core: 38, cta: 0 initialized @(7,0)
GPGPU-Sim uArch: Shader 54 bind to kernel 1 '_Z14matrix_mul_gpuPiS_S_i'
GPGPU-Sim uArch: core: 54, cta: 0 initialized @(7,0)
GPGPU-Sim uArch: Shader 70 bind to kernel 1 '_Z14matrix_mul_gpuPiS_S_i'
GPGPU-Sim uArch: core: 70, cta: 0 initialized @(7,0)
GPGPU-Sim uArch: Shader 86 bind to kernel 1 '_Z14matrix_mul_gpuPiS_S_i'
GPGPU-Sim uArch: core: 86, cta: 0 initialized @(7,0)
GPGPU-Sim uArch: Shader 102 bind to kernel 1 '_Z14matrix_mul_gpuPiS_S_i'
GPGPU-Sim uArch: core:102, cta: 0 initialized @(7,0)
GPGPU-Sim uArch: Shader 118 bind to kernel 1 '_Z14matrix_mul_gpuPiS_S_i'
GPGPU-Sim uArch: core:118, cta: 0 initialized @(7,0)
GPGPU-Sim uArch: Shader 134 bind to kernel 1 '_Z14matrix_mul_gpuPiS_S_i'
GPGPU-Sim uArch: core:134, cta: 0 initialized @(7,0)
GPGPU-Sim uArch: Shader 150 bind to kernel 1 '_Z14matrix_mul_gpuPiS_S_i'
GPGPU-Sim uArch: core:150, cta: 0 initialized @(7,0)
GPGPU-Sim uArch: Shader 166 bind to kernel 1 '_Z14matrix_mul_gpuPiS_S_i'
GPGPU-Sim uArch: core:166, cta: 0 initialized @(7,0)
GPGPU-Sim uArch: Shader 182 bind to kernel 1 '_Z14matrix_mul_gpuPiS_S_i'
GPGPU-Sim uArch: core:182, cta: 0 initialized @(7,0)
GPGPU-Sim uArch: Shader 198 bind to kernel 1 '_Z14matrix_mul_gpuPiS_S_i'
GPGPU-Sim uArch: core:198, cta: 0 initialized @(7,0)
GPGPU-Sim uArch: Shader 214 bind to kernel 1 '_Z14matrix_mul_gpuPiS_S_i'
GPGPU-Sim uArch: core:214, cta: 0 initialized @(7,0)
GPGPU-Sim uArch: Shader 230 bind to kernel 1 '_Z14matrix_mul_gpuPiS_S_i'
GPGPU-Sim uArch: core:230, cta: 0 initialized @(7,0)
GPGPU-Sim uArch: Shader 6 bind to kernel 1 '_Z14matrix_mul_gpuPiS_S_i'
GPGPU-Sim uArch: core:  6, cta: 0 initialized @(7,0)
GPGPU-Sim uArch: Shader 23 bind to kernel 1 '_Z14matrix_mul_gpuPiS_S_i'
GPGPU-Sim uArch: core: 23, cta: 0 initialized @(8,0)
GPGPU-Sim uArch: Shader 39 bind to kernel 1 '_Z14matrix_mul_gpuPiS_S_i'
GPGPU-Sim uArch: core: 39, cta: 0 initialized @(8,0)
GPGPU-Sim uArch: Shader 55 bind to kernel 1 '_Z14matrix_mul_gpuPiS_S_i'
GPGPU-Sim uArch: core: 55, cta: 0 initialized @(8,0)
GPGPU-Sim uArch: Shader 71 bind to kernel 1 '_Z14matrix_mul_gpuPiS_S_i'
GPGPU-Sim uArch: core: 71, cta: 0 initialized @(8,0)
GPGPU-Sim uArch: Shader 87 bind to kernel 1 '_Z14matrix_mul_gpuPiS_S_i'
GPGPU-Sim uArch: core: 87, cta: 0 initialized @(8,0)
GPGPU-Sim uArch: Shader 103 bind to kernel 1 '_Z14matrix_mul_gpuPiS_S_i'
GPGPU-Sim uArch: core:103, cta: 0 initialized @(8,0)
GPGPU-Sim uArch: Shader 119 bind to kernel 1 '_Z14matrix_mul_gpuPiS_S_i'
GPGPU-Sim uArch: core:119, cta: 0 initialized @(8,0)
GPGPU-Sim uArch: Shader 135 bind to kernel 1 '_Z14matrix_mul_gpuPiS_S_i'
GPGPU-Sim uArch: core:135, cta: 0 initialized @(8,0)
GPGPU-Sim uArch: Shader 151 bind to kernel 1 '_Z14matrix_mul_gpuPiS_S_i'
GPGPU-Sim uArch: core:151, cta: 0 initialized @(8,0)
GPGPU-Sim uArch: Shader 167 bind to kernel 1 '_Z14matrix_mul_gpuPiS_S_i'
GPGPU-Sim uArch: core:167, cta: 0 initialized @(8,0)
GPGPU-Sim uArch: Shader 183 bind to kernel 1 '_Z14matrix_mul_gpuPiS_S_i'
GPGPU-Sim uArch: core:183, cta: 0 initialized @(8,0)
GPGPU-Sim uArch: Shader 199 bind to kernel 1 '_Z14matrix_mul_gpuPiS_S_i'
GPGPU-Sim uArch: core:199, cta: 0 initialized @(8,0)
GPGPU-Sim uArch: Shader 215 bind to kernel 1 '_Z14matrix_mul_gpuPiS_S_i'
GPGPU-Sim uArch: core:215, cta: 0 initialized @(8,0)
GPGPU-Sim uArch: Shader 231 bind to kernel 1 '_Z14matrix_mul_gpuPiS_S_i'
GPGPU-Sim uArch: core:231, cta: 0 initialized @(8,0)
GPGPU-Sim uArch: Shader 7 bind to kernel 1 '_Z14matrix_mul_gpuPiS_S_i'
GPGPU-Sim uArch: core:  7, cta: 0 initialized @(8,0)
GPGPU-Sim uArch: Shader 24 bind to kernel 1 '_Z14matrix_mul_gpuPiS_S_i'
GPGPU-Sim uArch: core: 24, cta: 0 initialized @(9,0)
GPGPU-Sim uArch: Shader 40 bind to kernel 1 '_Z14matrix_mul_gpuPiS_S_i'
GPGPU-Sim uArch: core: 40, cta: 0 initialized @(9,0)
GPGPU-Sim uArch: Shader 56 bind to kernel 1 '_Z14matrix_mul_gpuPiS_S_i'
GPGPU-Sim uArch: core: 56, cta: 0 initialized @(9,0)
GPGPU-Sim uArch: Shader 72 bind to kernel 1 '_Z14matrix_mul_gpuPiS_S_i'
GPGPU-Sim uArch: core: 72, cta: 0 initialized @(9,0)
GPGPU-Sim uArch: Shader 88 bind to kernel 1 '_Z14matrix_mul_gpuPiS_S_i'
GPGPU-Sim uArch: core: 88, cta: 0 initialized @(9,0)
GPGPU-Sim uArch: Shader 104 bind to kernel 1 '_Z14matrix_mul_gpuPiS_S_i'
GPGPU-Sim uArch: core:104, cta: 0 initialized @(9,0)
GPGPU-Sim uArch: Shader 120 bind to kernel 1 '_Z14matrix_mul_gpuPiS_S_i'
GPGPU-Sim uArch: core:120, cta: 0 initialized @(9,0)
GPGPU-Sim uArch: Shader 136 bind to kernel 1 '_Z14matrix_mul_gpuPiS_S_i'
GPGPU-Sim uArch: core:136, cta: 0 initialized @(9,0)
GPGPU-Sim uArch: Shader 152 bind to kernel 1 '_Z14matrix_mul_gpuPiS_S_i'
GPGPU-Sim uArch: core:152, cta: 0 initialized @(9,0)
GPGPU-Sim uArch: Shader 168 bind to kernel 1 '_Z14matrix_mul_gpuPiS_S_i'
GPGPU-Sim uArch: core:168, cta: 0 initialized @(9,0)
GPGPU-Sim uArch: Shader 184 bind to kernel 1 '_Z14matrix_mul_gpuPiS_S_i'
GPGPU-Sim uArch: core:184, cta: 0 initialized @(9,0)
GPGPU-Sim uArch: Shader 200 bind to kernel 1 '_Z14matrix_mul_gpuPiS_S_i'
GPGPU-Sim uArch: core:200, cta: 0 initialized @(9,0)
GPGPU-Sim uArch: Shader 216 bind to kernel 1 '_Z14matrix_mul_gpuPiS_S_i'
GPGPU-Sim uArch: core:216, cta: 0 initialized @(9,0)
GPGPU-Sim uArch: Shader 232 bind to kernel 1 '_Z14matrix_mul_gpuPiS_S_i'
GPGPU-Sim uArch: core:232, cta: 0 initialized @(9,0)
GPGPU-Sim uArch: Shader 8 bind to kernel 1 '_Z14matrix_mul_gpuPiS_S_i'
GPGPU-Sim uArch: core:  8, cta: 0 initialized @(9,0)
GPGPU-Sim uArch: Shader 25 bind to kernel 1 '_Z14matrix_mul_gpuPiS_S_i'
GPGPU-Sim uArch: core: 25, cta: 0 initialized @(10,0)
GPGPU-Sim uArch: Shader 41 bind to kernel 1 '_Z14matrix_mul_gpuPiS_S_i'
GPGPU-Sim uArch: core: 41, cta: 0 initialized @(10,0)
GPGPU-Sim uArch: Shader 57 bind to kernel 1 '_Z14matrix_mul_gpuPiS_S_i'
GPGPU-Sim uArch: core: 57, cta: 0 initialized @(10,0)
GPGPU-Sim uArch: Shader 73 bind to kernel 1 '_Z14matrix_mul_gpuPiS_S_i'
GPGPU-Sim uArch: core: 73, cta: 0 initialized @(10,0)
GPGPU-Sim uArch: Shader 89 bind to kernel 1 '_Z14matrix_mul_gpuPiS_S_i'
GPGPU-Sim uArch: core: 89, cta: 0 initialized @(10,0)
GPGPU-Sim uArch: Shader 105 bind to kernel 1 '_Z14matrix_mul_gpuPiS_S_i'
GPGPU-Sim uArch: core:105, cta: 0 initialized @(10,0)
GPGPU-Sim uArch: Shader 121 bind to kernel 1 '_Z14matrix_mul_gpuPiS_S_i'
GPGPU-Sim uArch: core:121, cta: 0 initialized @(10,0)
GPGPU-Sim uArch: Shader 137 bind to kernel 1 '_Z14matrix_mul_gpuPiS_S_i'
GPGPU-Sim uArch: core:137, cta: 0 initialized @(10,0)
GPGPU-Sim uArch: Shader 153 bind to kernel 1 '_Z14matrix_mul_gpuPiS_S_i'
GPGPU-Sim uArch: core:153, cta: 0 initialized @(10,0)
GPGPU-Sim uArch: Shader 169 bind to kernel 1 '_Z14matrix_mul_gpuPiS_S_i'
GPGPU-Sim uArch: core:169, cta: 0 initialized @(10,0)
GPGPU-Sim uArch: Shader 185 bind to kernel 1 '_Z14matrix_mul_gpuPiS_S_i'
GPGPU-Sim uArch: core:185, cta: 0 initialized @(10,0)
GPGPU-Sim uArch: Shader 201 bind to kernel 1 '_Z14matrix_mul_gpuPiS_S_i'
GPGPU-Sim uArch: core:201, cta: 0 initialized @(10,0)
GPGPU-Sim uArch: Shader 217 bind to kernel 1 '_Z14matrix_mul_gpuPiS_S_i'
GPGPU-Sim uArch: core:217, cta: 0 initialized @(10,0)
GPGPU-Sim uArch: Shader 233 bind to kernel 1 '_Z14matrix_mul_gpuPiS_S_i'
GPGPU-Sim uArch: core:233, cta: 0 initialized @(10,0)
GPGPU-Sim uArch: Shader 9 bind to kernel 1 '_Z14matrix_mul_gpuPiS_S_i'
GPGPU-Sim uArch: core:  9, cta: 0 initialized @(10,0)
GPGPU-Sim uArch: Shader 26 bind to kernel 1 '_Z14matrix_mul_gpuPiS_S_i'
GPGPU-Sim uArch: core: 26, cta: 0 initialized @(11,0)
GPGPU-Sim uArch: Shader 42 bind to kernel 1 '_Z14matrix_mul_gpuPiS_S_i'
GPGPU-Sim uArch: core: 42, cta: 0 initialized @(11,0)
GPGPU-Sim uArch: Shader 58 bind to kernel 1 '_Z14matrix_mul_gpuPiS_S_i'
GPGPU-Sim uArch: core: 58, cta: 0 initialized @(11,0)
GPGPU-Sim uArch: Shader 74 bind to kernel 1 '_Z14matrix_mul_gpuPiS_S_i'
GPGPU-Sim uArch: core: 74, cta: 0 initialized @(11,0)
GPGPU-Sim uArch: Shader 90 bind to kernel 1 '_Z14matrix_mul_gpuPiS_S_i'
GPGPU-Sim uArch: core: 90, cta: 0 initialized @(11,0)
GPGPU-Sim uArch: Shader 106 bind to kernel 1 '_Z14matrix_mul_gpuPiS_S_i'
GPGPU-Sim uArch: core:106, cta: 0 initialized @(11,0)
GPGPU-Sim uArch: Shader 122 bind to kernel 1 '_Z14matrix_mul_gpuPiS_S_i'
GPGPU-Sim uArch: core:122, cta: 0 initialized @(11,0)
GPGPU-Sim uArch: Shader 138 bind to kernel 1 '_Z14matrix_mul_gpuPiS_S_i'
GPGPU-Sim uArch: core:138, cta: 0 initialized @(11,0)
GPGPU-Sim uArch: Shader 154 bind to kernel 1 '_Z14matrix_mul_gpuPiS_S_i'
GPGPU-Sim uArch: core:154, cta: 0 initialized @(11,0)
GPGPU-Sim uArch: Shader 170 bind to kernel 1 '_Z14matrix_mul_gpuPiS_S_i'
GPGPU-Sim uArch: core:170, cta: 0 initialized @(11,0)
GPGPU-Sim uArch: Shader 186 bind to kernel 1 '_Z14matrix_mul_gpuPiS_S_i'
GPGPU-Sim uArch: core:186, cta: 0 initialized @(11,0)
GPGPU-Sim uArch: Shader 202 bind to kernel 1 '_Z14matrix_mul_gpuPiS_S_i'
GPGPU-Sim uArch: core:202, cta: 0 initialized @(11,0)
GPGPU-Sim uArch: Shader 218 bind to kernel 1 '_Z14matrix_mul_gpuPiS_S_i'
GPGPU-Sim uArch: core:218, cta: 0 initialized @(11,0)
GPGPU-Sim uArch: Shader 234 bind to kernel 1 '_Z14matrix_mul_gpuPiS_S_i'
GPGPU-Sim uArch: core:234, cta: 0 initialized @(11,0)
GPGPU-Sim uArch: Shader 10 bind to kernel 1 '_Z14matrix_mul_gpuPiS_S_i'
GPGPU-Sim uArch: core: 10, cta: 0 initialized @(11,0)
GPGPU-Sim uArch: Shader 27 bind to kernel 1 '_Z14matrix_mul_gpuPiS_S_i'
GPGPU-Sim uArch: core: 27, cta: 0 initialized @(12,0)
GPGPU-Sim uArch: Shader 43 bind to kernel 1 '_Z14matrix_mul_gpuPiS_S_i'
GPGPU-Sim uArch: core: 43, cta: 0 initialized @(12,0)
GPGPU-Sim uArch: Shader 59 bind to kernel 1 '_Z14matrix_mul_gpuPiS_S_i'
GPGPU-Sim uArch: core: 59, cta: 0 initialized @(12,0)
GPGPU-Sim uArch: Shader 75 bind to kernel 1 '_Z14matrix_mul_gpuPiS_S_i'
GPGPU-Sim uArch: core: 75, cta: 0 initialized @(12,0)
GPGPU-Sim uArch: Shader 91 bind to kernel 1 '_Z14matrix_mul_gpuPiS_S_i'
GPGPU-Sim uArch: core: 91, cta: 0 initialized @(12,0)
GPGPU-Sim uArch: Shader 107 bind to kernel 1 '_Z14matrix_mul_gpuPiS_S_i'
GPGPU-Sim uArch: core:107, cta: 0 initialized @(12,0)
GPGPU-Sim uArch: Shader 123 bind to kernel 1 '_Z14matrix_mul_gpuPiS_S_i'
GPGPU-Sim uArch: core:123, cta: 0 initialized @(12,0)
GPGPU-Sim uArch: Shader 139 bind to kernel 1 '_Z14matrix_mul_gpuPiS_S_i'
GPGPU-Sim uArch: core:139, cta: 0 initialized @(12,0)
GPGPU-Sim uArch: Shader 155 bind to kernel 1 '_Z14matrix_mul_gpuPiS_S_i'
GPGPU-Sim uArch: core:155, cta: 0 initialized @(12,0)
GPGPU-Sim uArch: Shader 171 bind to kernel 1 '_Z14matrix_mul_gpuPiS_S_i'
GPGPU-Sim uArch: core:171, cta: 0 initialized @(12,0)
GPGPU-Sim uArch: Shader 187 bind to kernel 1 '_Z14matrix_mul_gpuPiS_S_i'
GPGPU-Sim uArch: core:187, cta: 0 initialized @(12,0)
GPGPU-Sim uArch: Shader 203 bind to kernel 1 '_Z14matrix_mul_gpuPiS_S_i'
GPGPU-Sim uArch: core:203, cta: 0 initialized @(12,0)
GPGPU-Sim uArch: Shader 219 bind to kernel 1 '_Z14matrix_mul_gpuPiS_S_i'
GPGPU-Sim uArch: core:219, cta: 0 initialized @(12,0)
GPGPU-Sim uArch: Shader 235 bind to kernel 1 '_Z14matrix_mul_gpuPiS_S_i'
GPGPU-Sim uArch: core:235, cta: 0 initialized @(12,0)
GPGPU-Sim uArch: Shader 11 bind to kernel 1 '_Z14matrix_mul_gpuPiS_S_i'
GPGPU-Sim uArch: core: 11, cta: 0 initialized @(12,0)
GPGPU-Sim uArch: Shader 28 bind to kernel 1 '_Z14matrix_mul_gpuPiS_S_i'
GPGPU-Sim uArch: core: 28, cta: 0 initialized @(13,0)
GPGPU-Sim uArch: Shader 44 bind to kernel 1 '_Z14matrix_mul_gpuPiS_S_i'
GPGPU-Sim uArch: core: 44, cta: 0 initialized @(13,0)
GPGPU-Sim uArch: Shader 60 bind to kernel 1 '_Z14matrix_mul_gpuPiS_S_i'
GPGPU-Sim uArch: core: 60, cta: 0 initialized @(13,0)
GPGPU-Sim uArch: Shader 76 bind to kernel 1 '_Z14matrix_mul_gpuPiS_S_i'
GPGPU-Sim uArch: core: 76, cta: 0 initialized @(13,0)
GPGPU-Sim uArch: Shader 92 bind to kernel 1 '_Z14matrix_mul_gpuPiS_S_i'
GPGPU-Sim uArch: core: 92, cta: 0 initialized @(13,0)
GPGPU-Sim uArch: Shader 108 bind to kernel 1 '_Z14matrix_mul_gpuPiS_S_i'
GPGPU-Sim uArch: core:108, cta: 0 initialized @(13,0)
GPGPU-Sim uArch: Shader 124 bind to kernel 1 '_Z14matrix_mul_gpuPiS_S_i'
GPGPU-Sim uArch: core:124, cta: 0 initialized @(13,0)
GPGPU-Sim uArch: Shader 140 bind to kernel 1 '_Z14matrix_mul_gpuPiS_S_i'
GPGPU-Sim uArch: core:140, cta: 0 initialized @(13,0)
GPGPU-Sim uArch: Shader 156 bind to kernel 1 '_Z14matrix_mul_gpuPiS_S_i'
GPGPU-Sim uArch: core:156, cta: 0 initialized @(13,0)
GPGPU-Sim uArch: Shader 172 bind to kernel 1 '_Z14matrix_mul_gpuPiS_S_i'
GPGPU-Sim uArch: core:172, cta: 0 initialized @(13,0)
GPGPU-Sim uArch: Shader 188 bind to kernel 1 '_Z14matrix_mul_gpuPiS_S_i'
GPGPU-Sim uArch: core:188, cta: 0 initialized @(13,0)
GPGPU-Sim uArch: Shader 204 bind to kernel 1 '_Z14matrix_mul_gpuPiS_S_i'
GPGPU-Sim uArch: core:204, cta: 0 initialized @(13,0)
GPGPU-Sim uArch: Shader 220 bind to kernel 1 '_Z14matrix_mul_gpuPiS_S_i'
GPGPU-Sim uArch: core:220, cta: 0 initialized @(13,0)
GPGPU-Sim uArch: Shader 236 bind to kernel 1 '_Z14matrix_mul_gpuPiS_S_i'
GPGPU-Sim uArch: core:236, cta: 0 initialized @(13,0)
GPGPU-Sim uArch: Shader 12 bind to kernel 1 '_Z14matrix_mul_gpuPiS_S_i'
GPGPU-Sim uArch: core: 12, cta: 0 initialized @(13,0)
GPGPU-Sim uArch: Shader 29 bind to kernel 1 '_Z14matrix_mul_gpuPiS_S_i'
GPGPU-Sim uArch: core: 29, cta: 0 initialized @(14,0)
GPGPU-Sim uArch: Shader 45 bind to kernel 1 '_Z14matrix_mul_gpuPiS_S_i'
GPGPU-Sim uArch: core: 45, cta: 0 initialized @(14,0)
GPGPU-Sim uArch: Shader 61 bind to kernel 1 '_Z14matrix_mul_gpuPiS_S_i'
GPGPU-Sim uArch: core: 61, cta: 0 initialized @(14,0)
GPGPU-Sim uArch: Shader 77 bind to kernel 1 '_Z14matrix_mul_gpuPiS_S_i'
GPGPU-Sim uArch: core: 77, cta: 0 initialized @(14,0)
GPGPU-Sim uArch: Shader 93 bind to kernel 1 '_Z14matrix_mul_gpuPiS_S_i'
GPGPU-Sim uArch: core: 93, cta: 0 initialized @(14,0)
GPGPU-Sim uArch: Shader 109 bind to kernel 1 '_Z14matrix_mul_gpuPiS_S_i'
GPGPU-Sim uArch: core:109, cta: 0 initialized @(14,0)
GPGPU-Sim uArch: Shader 125 bind to kernel 1 '_Z14matrix_mul_gpuPiS_S_i'
GPGPU-Sim uArch: core:125, cta: 0 initialized @(14,0)
GPGPU-Sim uArch: Shader 141 bind to kernel 1 '_Z14matrix_mul_gpuPiS_S_i'
GPGPU-Sim uArch: core:141, cta: 0 initialized @(14,0)
GPGPU-Sim uArch: Shader 157 bind to kernel 1 '_Z14matrix_mul_gpuPiS_S_i'
GPGPU-Sim uArch: core:157, cta: 0 initialized @(14,0)
GPGPU-Sim uArch: Shader 173 bind to kernel 1 '_Z14matrix_mul_gpuPiS_S_i'
GPGPU-Sim uArch: core:173, cta: 0 initialized @(14,0)
GPGPU-Sim uArch: Shader 189 bind to kernel 1 '_Z14matrix_mul_gpuPiS_S_i'
GPGPU-Sim uArch: core:189, cta: 0 initialized @(14,0)
GPGPU-Sim uArch: Shader 205 bind to kernel 1 '_Z14matrix_mul_gpuPiS_S_i'
GPGPU-Sim uArch: core:205, cta: 0 initialized @(14,0)
GPGPU-Sim uArch: Shader 221 bind to kernel 1 '_Z14matrix_mul_gpuPiS_S_i'
GPGPU-Sim uArch: core:221, cta: 0 initialized @(14,0)
GPGPU-Sim uArch: Shader 237 bind to kernel 1 '_Z14matrix_mul_gpuPiS_S_i'
GPGPU-Sim uArch: core:237, cta: 0 initialized @(14,0)
GPGPU-Sim uArch: Shader 13 bind to kernel 1 '_Z14matrix_mul_gpuPiS_S_i'
GPGPU-Sim uArch: core: 13, cta: 0 initialized @(14,0)
GPGPU-Sim uArch: Shader 30 bind to kernel 1 '_Z14matrix_mul_gpuPiS_S_i'
GPGPU-Sim uArch: core: 30, cta: 0 initialized @(15,0)
GPGPU-Sim uArch: Shader 46 bind to kernel 1 '_Z14matrix_mul_gpuPiS_S_i'
GPGPU-Sim uArch: core: 46, cta: 0 initialized @(15,0)
GPGPU-Sim uArch: Shader 62 bind to kernel 1 '_Z14matrix_mul_gpuPiS_S_i'
GPGPU-Sim uArch: core: 62, cta: 0 initialized @(15,0)
GPGPU-Sim uArch: Shader 78 bind to kernel 1 '_Z14matrix_mul_gpuPiS_S_i'
GPGPU-Sim uArch: core: 78, cta: 0 initialized @(15,0)
GPGPU-Sim uArch: Shader 94 bind to kernel 1 '_Z14matrix_mul_gpuPiS_S_i'
GPGPU-Sim uArch: core: 94, cta: 0 initialized @(15,0)
GPGPU-Sim uArch: Shader 110 bind to kernel 1 '_Z14matrix_mul_gpuPiS_S_i'
GPGPU-Sim uArch: core:110, cta: 0 initialized @(15,0)
GPGPU-Sim uArch: Shader 126 bind to kernel 1 '_Z14matrix_mul_gpuPiS_S_i'
GPGPU-Sim uArch: core:126, cta: 0 initialized @(15,0)
GPGPU-Sim uArch: Shader 142 bind to kernel 1 '_Z14matrix_mul_gpuPiS_S_i'
GPGPU-Sim uArch: core:142, cta: 0 initialized @(15,0)
GPGPU-Sim uArch: Shader 158 bind to kernel 1 '_Z14matrix_mul_gpuPiS_S_i'
GPGPU-Sim uArch: core:158, cta: 0 initialized @(15,0)
GPGPU-Sim uArch: Shader 174 bind to kernel 1 '_Z14matrix_mul_gpuPiS_S_i'
GPGPU-Sim uArch: core:174, cta: 0 initialized @(15,0)
GPGPU-Sim uArch: Shader 190 bind to kernel 1 '_Z14matrix_mul_gpuPiS_S_i'
GPGPU-Sim uArch: core:190, cta: 0 initialized @(15,0)
GPGPU-Sim uArch: Shader 206 bind to kernel 1 '_Z14matrix_mul_gpuPiS_S_i'
GPGPU-Sim uArch: core:206, cta: 0 initialized @(15,0)
GPGPU-Sim uArch: Shader 222 bind to kernel 1 '_Z14matrix_mul_gpuPiS_S_i'
GPGPU-Sim uArch: core:222, cta: 0 initialized @(15,0)
GPGPU-Sim uArch: Shader 238 bind to kernel 1 '_Z14matrix_mul_gpuPiS_S_i'
GPGPU-Sim uArch: core:238, cta: 0 initialized @(15,0)
GPGPU-Sim uArch: Shader 14 bind to kernel 1 '_Z14matrix_mul_gpuPiS_S_i'
GPGPU-Sim uArch: core: 14, cta: 0 initialized @(15,0)
GPGPU-Sim uArch: Shader 31 bind to kernel 1 '_Z14matrix_mul_gpuPiS_S_i'
GPGPU-Sim uArch: core: 31, cta: 0 initialized @(16,0)
GPGPU-Sim uArch: Shader 47 bind to kernel 1 '_Z14matrix_mul_gpuPiS_S_i'
GPGPU-Sim uArch: core: 47, cta: 0 initialized @(16,0)
GPGPU-Sim uArch: Shader 63 bind to kernel 1 '_Z14matrix_mul_gpuPiS_S_i'
GPGPU-Sim uArch: core: 63, cta: 0 initialized @(16,0)
GPGPU-Sim uArch: Shader 79 bind to kernel 1 '_Z14matrix_mul_gpuPiS_S_i'
GPGPU-Sim uArch: core: 79, cta: 0 initialized @(16,0)
GPGPU-Sim uArch: Shader 95 bind to kernel 1 '_Z14matrix_mul_gpuPiS_S_i'
GPGPU-Sim uArch: core: 95, cta: 0 initialized @(16,0)
GPGPU-Sim uArch: Shader 111 bind to kernel 1 '_Z14matrix_mul_gpuPiS_S_i'
GPGPU-Sim uArch: core:111, cta: 0 initialized @(16,0)
GPGPU-Sim uArch: Shader 127 bind to kernel 1 '_Z14matrix_mul_gpuPiS_S_i'
GPGPU-Sim uArch: core:127, cta: 0 initialized @(16,0)
GPGPU-Sim uArch: Shader 143 bind to kernel 1 '_Z14matrix_mul_gpuPiS_S_i'
GPGPU-Sim uArch: core:143, cta: 0 initialized @(16,0)
GPGPU-Sim uArch: Shader 159 bind to kernel 1 '_Z14matrix_mul_gpuPiS_S_i'
GPGPU-Sim uArch: core:159, cta: 0 initialized @(16,0)
GPGPU-Sim uArch: Shader 175 bind to kernel 1 '_Z14matrix_mul_gpuPiS_S_i'
GPGPU-Sim uArch: core:175, cta: 0 initialized @(16,0)
GPGPU-Sim uArch: Shader 191 bind to kernel 1 '_Z14matrix_mul_gpuPiS_S_i'
GPGPU-Sim uArch: core:191, cta: 0 initialized @(16,0)
GPGPU-Sim uArch: Shader 207 bind to kernel 1 '_Z14matrix_mul_gpuPiS_S_i'
GPGPU-Sim uArch: core:207, cta: 0 initialized @(16,0)
GPGPU-Sim uArch: Shader 223 bind to kernel 1 '_Z14matrix_mul_gpuPiS_S_i'
GPGPU-Sim uArch: core:223, cta: 0 initialized @(16,0)
GPGPU-Sim uArch: Shader 239 bind to kernel 1 '_Z14matrix_mul_gpuPiS_S_i'
GPGPU-Sim uArch: core:239, cta: 0 initialized @(16,0)
GPGPU-Sim uArch: Shader 15 bind to kernel 1 '_Z14matrix_mul_gpuPiS_S_i'
GPGPU-Sim uArch: core: 15, cta: 0 initialized @(16,0)
GPGPU-Sim uArch: core: 16, cta: 1 initialized @(17,0)
GPGPU-Sim uArch: core: 32, cta: 1 initialized @(17,0)
GPGPU-Sim uArch: core: 48, cta: 1 initialized @(17,0)
GPGPU-Sim uArch: core: 64, cta: 1 initialized @(17,0)
GPGPU-Sim uArch: core: 80, cta: 1 initialized @(17,0)
GPGPU-Sim uArch: core: 96, cta: 1 initialized @(17,0)
GPGPU-Sim uArch: core:112, cta: 1 initialized @(17,0)
GPGPU-Sim uArch: core:128, cta: 1 initialized @(17,0)
GPGPU-Sim uArch: core:144, cta: 1 initialized @(17,0)
GPGPU-Sim uArch: core:160, cta: 1 initialized @(17,0)
GPGPU-Sim uArch: core:176, cta: 1 initialized @(17,0)
GPGPU-Sim uArch: core:192, cta: 1 initialized @(17,0)
GPGPU-Sim uArch: core:208, cta: 1 initialized @(17,0)
GPGPU-Sim uArch: core:224, cta: 1 initialized @(17,0)
GPGPU-Sim uArch: core:  0, cta: 1 initialized @(17,0)
GPGPU-Sim uArch: core: 17, cta: 1 initialized @(18,0)
GPGPU-Sim uArch: core: 33, cta: 1 initialized @(18,0)
GPGPU-Sim uArch: core: 49, cta: 1 initialized @(18,0)
GPGPU-Sim uArch: core: 65, cta: 1 initialized @(18,0)
GPGPU-Sim uArch: core: 81, cta: 1 initialized @(18,0)
GPGPU-Sim uArch: core: 97, cta: 1 initialized @(18,0)
GPGPU-Sim uArch: core:113, cta: 1 initialized @(18,0)
GPGPU-Sim uArch: core:129, cta: 1 initialized @(18,0)
GPGPU-Sim uArch: core:145, cta: 1 initialized @(18,0)
GPGPU-Sim uArch: core:161, cta: 1 initialized @(18,0)
GPGPU-Sim uArch: core:177, cta: 1 initialized @(18,0)
GPGPU-Sim uArch: core:193, cta: 1 initialized @(18,0)
GPGPU-Sim uArch: core:209, cta: 1 initialized @(18,0)
GPGPU-Sim uArch: core:225, cta: 1 initialized @(18,0)
GPGPU-Sim uArch: core:  1, cta: 1 initialized @(18,0)
GPGPU-Sim uArch: core: 18, cta: 1 initialized @(19,0)
GPGPU-Sim uArch: core: 34, cta: 1 initialized @(19,0)
GPGPU-Sim uArch: core: 50, cta: 1 initialized @(19,0)
GPGPU-Sim uArch: core: 66, cta: 1 initialized @(19,0)
GPGPU-Sim uArch: core: 82, cta: 1 initialized @(19,0)
GPGPU-Sim uArch: core: 98, cta: 1 initialized @(19,0)
GPGPU-Sim uArch: core:114, cta: 1 initialized @(19,0)
GPGPU-Sim uArch: core:130, cta: 1 initialized @(19,0)
GPGPU-Sim uArch: core:146, cta: 1 initialized @(19,0)
GPGPU-Sim uArch: core:162, cta: 1 initialized @(19,0)
GPGPU-Sim uArch: core:178, cta: 1 initialized @(19,0)
GPGPU-Sim uArch: core:194, cta: 1 initialized @(19,0)
GPGPU-Sim uArch: core:210, cta: 1 initialized @(19,0)
GPGPU-Sim uArch: core:226, cta: 1 initialized @(19,0)
GPGPU-Sim uArch: core:  2, cta: 1 initialized @(19,0)
GPGPU-Sim uArch: core: 19, cta: 1 initialized @(20,0)
GPGPU-Sim uArch: core: 35, cta: 1 initialized @(20,0)
GPGPU-Sim uArch: core: 51, cta: 1 initialized @(20,0)
GPGPU-Sim uArch: core: 67, cta: 1 initialized @(20,0)
GPGPU-Sim uArch: core: 83, cta: 1 initialized @(20,0)
GPGPU-Sim uArch: core: 99, cta: 1 initialized @(20,0)
GPGPU-Sim uArch: core:115, cta: 1 initialized @(20,0)
GPGPU-Sim uArch: core:131, cta: 1 initialized @(20,0)
GPGPU-Sim uArch: core:147, cta: 1 initialized @(20,0)
GPGPU-Sim uArch: core:163, cta: 1 initialized @(20,0)
GPGPU-Sim uArch: core:179, cta: 1 initialized @(20,0)
GPGPU-Sim uArch: core:195, cta: 1 initialized @(20,0)
GPGPU-Sim uArch: core:211, cta: 1 initialized @(20,0)
GPGPU-Sim uArch: core:227, cta: 1 initialized @(20,0)
GPGPU-Sim uArch: core:  3, cta: 1 initialized @(20,0)
GPGPU-Sim uArch: core: 20, cta: 1 initialized @(21,0)
GPGPU-Sim uArch: core: 36, cta: 1 initialized @(21,0)
GPGPU-Sim uArch: core: 52, cta: 1 initialized @(21,0)
GPGPU-Sim uArch: core: 68, cta: 1 initialized @(21,0)
GPGPU-Sim uArch: core: 84, cta: 1 initialized @(21,0)
GPGPU-Sim uArch: core:100, cta: 1 initialized @(21,0)
GPGPU-Sim uArch: core:116, cta: 1 initialized @(21,0)
GPGPU-Sim uArch: core:132, cta: 1 initialized @(21,0)
GPGPU-Sim uArch: core:148, cta: 1 initialized @(21,0)
GPGPU-Sim uArch: core:164, cta: 1 initialized @(21,0)
GPGPU-Sim uArch: core:180, cta: 1 initialized @(21,0)
GPGPU-Sim uArch: core:196, cta: 1 initialized @(21,0)
GPGPU-Sim uArch: core:212, cta: 1 initialized @(21,0)
GPGPU-Sim uArch: core:228, cta: 1 initialized @(21,0)
GPGPU-Sim uArch: core:  4, cta: 1 initialized @(21,0)
GPGPU-Sim uArch: core: 21, cta: 1 initialized @(22,0)
GPGPU-Sim uArch: core: 37, cta: 1 initialized @(22,0)
GPGPU-Sim uArch: core: 53, cta: 1 initialized @(22,0)
GPGPU-Sim uArch: core: 69, cta: 1 initialized @(22,0)
GPGPU-Sim uArch: core: 85, cta: 1 initialized @(22,0)
GPGPU-Sim uArch: core:101, cta: 1 initialized @(22,0)
GPGPU-Sim uArch: core:117, cta: 1 initialized @(22,0)
GPGPU-Sim uArch: core:133, cta: 1 initialized @(22,0)
GPGPU-Sim uArch: core:149, cta: 1 initialized @(22,0)
GPGPU-Sim uArch: core:165, cta: 1 initialized @(22,0)
GPGPU-Sim uArch: core:181, cta: 1 initialized @(22,0)
GPGPU-Sim uArch: core:197, cta: 1 initialized @(22,0)
GPGPU-Sim uArch: core:213, cta: 1 initialized @(22,0)
GPGPU-Sim uArch: core:229, cta: 1 initialized @(22,0)
GPGPU-Sim uArch: core:  5, cta: 1 initialized @(22,0)
GPGPU-Sim uArch: core: 22, cta: 1 initialized @(23,0)
GPGPU-Sim uArch: core: 38, cta: 1 initialized @(23,0)
GPGPU-Sim uArch: core: 54, cta: 1 initialized @(23,0)
GPGPU-Sim uArch: core: 70, cta: 1 initialized @(23,0)
GPGPU-Sim uArch: core: 86, cta: 1 initialized @(23,0)
GPGPU-Sim uArch: core:102, cta: 1 initialized @(23,0)
GPGPU-Sim uArch: core:118, cta: 1 initialized @(23,0)
GPGPU-Sim uArch: core:134, cta: 1 initialized @(23,0)
GPGPU-Sim uArch: core:150, cta: 1 initialized @(23,0)
GPGPU-Sim uArch: core:166, cta: 1 initialized @(23,0)
GPGPU-Sim uArch: core:182, cta: 1 initialized @(23,0)
GPGPU-Sim uArch: core:198, cta: 1 initialized @(23,0)
GPGPU-Sim uArch: core:214, cta: 1 initialized @(23,0)
GPGPU-Sim uArch: core:230, cta: 1 initialized @(23,0)
GPGPU-Sim uArch: core:  6, cta: 1 initialized @(23,0)
GPGPU-Sim uArch: core: 23, cta: 1 initialized @(24,0)
GPGPU-Sim uArch: core: 39, cta: 1 initialized @(24,0)
GPGPU-Sim uArch: core: 55, cta: 1 initialized @(24,0)
GPGPU-Sim uArch: core: 71, cta: 1 initialized @(24,0)
GPGPU-Sim uArch: core: 87, cta: 1 initialized @(24,0)
GPGPU-Sim uArch: core:103, cta: 1 initialized @(24,0)
GPGPU-Sim uArch: core:119, cta: 1 initialized @(24,0)
GPGPU-Sim uArch: core:135, cta: 1 initialized @(24,0)
GPGPU-Sim uArch: core:151, cta: 1 initialized @(24,0)
GPGPU-Sim uArch: core:167, cta: 1 initialized @(24,0)
GPGPU-Sim uArch: core:183, cta: 1 initialized @(24,0)
GPGPU-Sim uArch: core:199, cta: 1 initialized @(24,0)
GPGPU-Sim uArch: core:215, cta: 1 initialized @(24,0)
GPGPU-Sim uArch: core:231, cta: 1 initialized @(24,0)
GPGPU-Sim uArch: core:  7, cta: 1 initialized @(24,0)
GPGPU-Sim uArch: core: 24, cta: 1 initialized @(25,0)
GPGPU-Sim uArch: core: 40, cta: 1 initialized @(25,0)
GPGPU-Sim uArch: core: 56, cta: 1 initialized @(25,0)
GPGPU-Sim uArch: core: 72, cta: 1 initialized @(25,0)
GPGPU-Sim uArch: core: 88, cta: 1 initialized @(25,0)
GPGPU-Sim uArch: core:104, cta: 1 initialized @(25,0)
GPGPU-Sim uArch: core:120, cta: 1 initialized @(25,0)
GPGPU-Sim uArch: core:136, cta: 1 initialized @(25,0)
GPGPU-Sim uArch: core:152, cta: 1 initialized @(25,0)
GPGPU-Sim uArch: core:168, cta: 1 initialized @(25,0)
GPGPU-Sim uArch: core:184, cta: 1 initialized @(25,0)
GPGPU-Sim uArch: core:200, cta: 1 initialized @(25,0)
GPGPU-Sim uArch: core:216, cta: 1 initialized @(25,0)
GPGPU-Sim uArch: core:232, cta: 1 initialized @(25,0)
GPGPU-Sim uArch: core:  8, cta: 1 initialized @(25,0)
GPGPU-Sim uArch: core: 25, cta: 1 initialized @(26,0)
GPGPU-Sim uArch: core: 41, cta: 1 initialized @(26,0)
GPGPU-Sim uArch: core: 57, cta: 1 initialized @(26,0)
GPGPU-Sim uArch: core: 73, cta: 1 initialized @(26,0)
GPGPU-Sim uArch: core: 89, cta: 1 initialized @(26,0)
GPGPU-Sim uArch: core:105, cta: 1 initialized @(26,0)
GPGPU-Sim uArch: core:121, cta: 1 initialized @(26,0)
GPGPU-Sim uArch: core:137, cta: 1 initialized @(26,0)
GPGPU-Sim uArch: core:153, cta: 1 initialized @(26,0)
GPGPU-Sim uArch: core:169, cta: 1 initialized @(26,0)
GPGPU-Sim uArch: core:185, cta: 1 initialized @(26,0)
GPGPU-Sim uArch: core:201, cta: 1 initialized @(26,0)
GPGPU-Sim uArch: core:217, cta: 1 initialized @(26,0)
GPGPU-Sim uArch: core:233, cta: 1 initialized @(26,0)
GPGPU-Sim uArch: core:  9, cta: 1 initialized @(26,0)
GPGPU-Sim uArch: core: 26, cta: 1 initialized @(27,0)
GPGPU-Sim uArch: core: 42, cta: 1 initialized @(27,0)
GPGPU-Sim uArch: core: 58, cta: 1 initialized @(27,0)
GPGPU-Sim uArch: core: 74, cta: 1 initialized @(27,0)
GPGPU-Sim uArch: core: 90, cta: 1 initialized @(27,0)
GPGPU-Sim uArch: core:106, cta: 1 initialized @(27,0)
GPGPU-Sim uArch: core:122, cta: 1 initialized @(27,0)
GPGPU-Sim uArch: core:138, cta: 1 initialized @(27,0)
GPGPU-Sim uArch: core:154, cta: 1 initialized @(27,0)
GPGPU-Sim uArch: core:170, cta: 1 initialized @(27,0)
GPGPU-Sim uArch: core:186, cta: 1 initialized @(27,0)
GPGPU-Sim uArch: core:202, cta: 1 initialized @(27,0)
GPGPU-Sim uArch: core:218, cta: 1 initialized @(27,0)
GPGPU-Sim uArch: core:234, cta: 1 initialized @(27,0)
GPGPU-Sim uArch: core: 10, cta: 1 initialized @(27,0)
GPGPU-Sim uArch: core: 27, cta: 1 initialized @(28,0)
GPGPU-Sim uArch: core: 43, cta: 1 initialized @(28,0)
GPGPU-Sim uArch: core: 59, cta: 1 initialized @(28,0)
GPGPU-Sim uArch: core: 75, cta: 1 initialized @(28,0)
GPGPU-Sim uArch: core: 91, cta: 1 initialized @(28,0)
GPGPU-Sim uArch: core:107, cta: 1 initialized @(28,0)
GPGPU-Sim uArch: core:123, cta: 1 initialized @(28,0)
GPGPU-Sim uArch: core:139, cta: 1 initialized @(28,0)
GPGPU-Sim uArch: core:155, cta: 1 initialized @(28,0)
GPGPU-Sim uArch: core:171, cta: 1 initialized @(28,0)
GPGPU-Sim uArch: core:187, cta: 1 initialized @(28,0)
GPGPU-Sim uArch: core:203, cta: 1 initialized @(28,0)
GPGPU-Sim uArch: core:219, cta: 1 initialized @(28,0)
GPGPU-Sim uArch: core:235, cta: 1 initialized @(28,0)
GPGPU-Sim uArch: core: 11, cta: 1 initialized @(28,0)
GPGPU-Sim uArch: core: 28, cta: 1 initialized @(29,0)
GPGPU-Sim uArch: core: 44, cta: 1 initialized @(29,0)
GPGPU-Sim uArch: core: 60, cta: 1 initialized @(29,0)
GPGPU-Sim uArch: core: 76, cta: 1 initialized @(29,0)
GPGPU-Sim uArch: core: 92, cta: 1 initialized @(29,0)
GPGPU-Sim uArch: core:108, cta: 1 initialized @(29,0)
GPGPU-Sim uArch: core:124, cta: 1 initialized @(29,0)
GPGPU-Sim uArch: core:140, cta: 1 initialized @(29,0)
GPGPU-Sim uArch: core:156, cta: 1 initialized @(29,0)
GPGPU-Sim uArch: core:172, cta: 1 initialized @(29,0)
GPGPU-Sim uArch: core:188, cta: 1 initialized @(29,0)
GPGPU-Sim uArch: core:204, cta: 1 initialized @(29,0)
GPGPU-Sim uArch: core:220, cta: 1 initialized @(29,0)
GPGPU-Sim uArch: core:236, cta: 1 initialized @(29,0)
GPGPU-Sim uArch: core: 12, cta: 1 initialized @(29,0)
GPGPU-Sim uArch: core: 29, cta: 1 initialized @(30,0)
GPGPU-Sim uArch: core: 45, cta: 1 initialized @(30,0)
GPGPU-Sim uArch: core: 61, cta: 1 initialized @(30,0)
GPGPU-Sim uArch: core: 77, cta: 1 initialized @(30,0)
GPGPU-Sim uArch: core: 93, cta: 1 initialized @(30,0)
GPGPU-Sim uArch: core:109, cta: 1 initialized @(30,0)
GPGPU-Sim uArch: core:125, cta: 1 initialized @(30,0)
GPGPU-Sim uArch: core:141, cta: 1 initialized @(30,0)
GPGPU-Sim uArch: core:157, cta: 1 initialized @(30,0)
GPGPU-Sim uArch: core:173, cta: 1 initialized @(30,0)
GPGPU-Sim uArch: core:189, cta: 1 initialized @(30,0)
GPGPU-Sim uArch: core:205, cta: 1 initialized @(30,0)
GPGPU-Sim uArch: core:221, cta: 1 initialized @(30,0)
GPGPU-Sim uArch: core:237, cta: 1 initialized @(30,0)
GPGPU-Sim uArch: core: 13, cta: 1 initialized @(30,0)
GPGPU-Sim uArch: cycles simulated: 500  inst.: 49456 (ipc=98.9) sim_rate=24728 (inst/sec) elapsed = 0:0:00:02 / Mon Jun 14 16:31:50 2021
GPGPU-Sim PTX: 100000 instructions simulated : ctaid=(2,10,0) tid=(5,7,0)
GPGPU-Sim uArch: cycles simulated: 1000  inst.: 162156 (ipc=162.2) sim_rate=40539 (inst/sec) elapsed = 0:0:00:04 / Mon Jun 14 16:31:52 2021
GPGPU-Sim PTX: 200000 instructions simulated : ctaid=(6,4,0) tid=(1,7,0)
GPGPU-Sim PTX: 300000 instructions simulated : ctaid=(6,14,0) tid=(9,3,0)
GPGPU-Sim uArch: cycles simulated: 1500  inst.: 274856 (ipc=183.2) sim_rate=45809 (inst/sec) elapsed = 0:0:00:06 / Mon Jun 14 16:31:54 2021
GPGPU-Sim PTX: 400000 instructions simulated : ctaid=(28,8,0) tid=(1,5,0)
GPGPU-Sim uArch: cycles simulated: 2000  inst.: 375496 (ipc=187.7) sim_rate=46937 (inst/sec) elapsed = 0:0:00:08 / Mon Jun 14 16:31:56 2021
GPGPU-Sim PTX: 500000 instructions simulated : ctaid=(26,10,0) tid=(1,9,0)
GPGPU-Sim PTX: 600000 instructions simulated : ctaid=(28,12,0) tid=(9,1,0)
GPGPU-Sim uArch: cycles simulated: 2500  inst.: 557540 (ipc=223.0) sim_rate=55754 (inst/sec) elapsed = 0:0:00:10 / Mon Jun 14 16:31:58 2021
GPGPU-Sim PTX: 700000 instructions simulated : ctaid=(6,7,0) tid=(1,5,0)
GPGPU-Sim uArch: cycles simulated: 3000  inst.: 680052 (ipc=226.7) sim_rate=56671 (inst/sec) elapsed = 0:0:00:12 / Mon Jun 14 16:32:00 2021
GPGPU-Sim PTX: 800000 instructions simulated : ctaid=(27,0,0) tid=(1,9,0)
GPGPU-Sim PTX: 900000 instructions simulated : ctaid=(22,9,0) tid=(3,4,0)
GPGPU-Sim uArch: cycles simulated: 3500  inst.: 900900 (ipc=257.4) sim_rate=64350 (inst/sec) elapsed = 0:0:00:14 / Mon Jun 14 16:32:02 2021
GPGPU-Sim PTX: 1000000 instructions simulated : ctaid=(4,11,0) tid=(7,0,0)
GPGPU-Sim PTX: 1100000 instructions simulated : ctaid=(5,12,0) tid=(1,7,0)
GPGPU-Sim PTX: 1200000 instructions simulated : ctaid=(2,5,0) tid=(9,5,0)
GPGPU-Sim uArch: cycles simulated: 4000  inst.: 1126740 (ipc=281.7) sim_rate=70421 (inst/sec) elapsed = 0:0:00:16 / Mon Jun 14 16:32:04 2021
GPGPU-Sim PTX: 1300000 instructions simulated : ctaid=(1,14,0) tid=(5,7,0)
GPGPU-Sim PTX: 1400000 instructions simulated : ctaid=(10,7,0) tid=(9,1,0)
GPGPU-Sim uArch: cycles simulated: 4500  inst.: 1308264 (ipc=290.7) sim_rate=68856 (inst/sec) elapsed = 0:0:00:19 / Mon Jun 14 16:32:07 2021
GPGPU-Sim uArch: cycles simulated: 5000  inst.: 1348552 (ipc=269.7) sim_rate=64216 (inst/sec) elapsed = 0:0:00:21 / Mon Jun 14 16:32:09 2021
GPGPU-Sim uArch: cycles simulated: 5500  inst.: 1386984 (ipc=252.2) sim_rate=60303 (inst/sec) elapsed = 0:0:00:23 / Mon Jun 14 16:32:11 2021
GPGPU-Sim uArch: cycles simulated: 6000  inst.: 1413324 (ipc=235.6) sim_rate=54358 (inst/sec) elapsed = 0:0:00:26 / Mon Jun 14 16:32:14 2021
GPGPU-Sim PTX: 1500000 instructions simulated : ctaid=(15,0,0) tid=(9,7,0)
GPGPU-Sim uArch: cycles simulated: 6500  inst.: 1435792 (ipc=220.9) sim_rate=51278 (inst/sec) elapsed = 0:0:00:28 / Mon Jun 14 16:32:16 2021
GPGPU-Sim uArch: cycles simulated: 7000  inst.: 1462804 (ipc=209.0) sim_rate=48760 (inst/sec) elapsed = 0:0:00:30 / Mon Jun 14 16:32:18 2021
GPGPU-Sim uArch: cycles simulated: 7500  inst.: 1520548 (ipc=202.7) sim_rate=47517 (inst/sec) elapsed = 0:0:00:32 / Mon Jun 14 16:32:20 2021
GPGPU-Sim PTX: 1600000 instructions simulated : ctaid=(26,1,0) tid=(5,3,0)
GPGPU-Sim uArch: cycles simulated: 8000  inst.: 1587408 (ipc=198.4) sim_rate=46688 (inst/sec) elapsed = 0:0:00:34 / Mon Jun 14 16:32:22 2021
GPGPU-Sim PTX: 1700000 instructions simulated : ctaid=(23,8,0) tid=(3,6,0)
GPGPU-Sim uArch: cycles simulated: 8500  inst.: 1709700 (ipc=201.1) sim_rate=47491 (inst/sec) elapsed = 0:0:00:36 / Mon Jun 14 16:32:24 2021
GPGPU-Sim PTX: 1800000 instructions simulated : ctaid=(18,3,0) tid=(5,7,0)
GPGPU-Sim PTX: 1900000 instructions simulated : ctaid=(27,6,0) tid=(9,1,0)
GPGPU-Sim uArch: cycles simulated: 9000  inst.: 1867708 (ipc=207.5) sim_rate=49150 (inst/sec) elapsed = 0:0:00:38 / Mon Jun 14 16:32:26 2021
GPGPU-Sim PTX: 2000000 instructions simulated : ctaid=(18,1,0) tid=(3,4,0)
GPGPU-Sim PTX: 2100000 instructions simulated : ctaid=(27,10,0) tid=(9,9,0)
GPGPU-Sim PTX: 2200000 instructions simulated : ctaid=(12,3,0) tid=(5,7,0)
GPGPU-Sim uArch: cycles simulated: 9500  inst.: 2136488 (ipc=224.9) sim_rate=53412 (inst/sec) elapsed = 0:0:00:40 / Mon Jun 14 16:32:28 2021
GPGPU-Sim PTX: 2300000 instructions simulated : ctaid=(11,3,0) tid=(3,8,0)
GPGPU-Sim PTX: 2400000 instructions simulated : ctaid=(17,1,0) tid=(9,9,0)
GPGPU-Sim PTX: 2500000 instructions simulated : ctaid=(8,3,0) tid=(1,3,0)
GPGPU-Sim PTX: 2600000 instructions simulated : ctaid=(13,1,0) tid=(1,5,0)
GPGPU-Sim PTX: 2700000 instructions simulated : ctaid=(12,11,0) tid=(1,9,0)
GPGPU-Sim uArch: cycles simulated: 10000  inst.: 2631780 (ipc=263.2) sim_rate=61204 (inst/sec) elapsed = 0:0:00:43 / Mon Jun 14 16:32:31 2021
GPGPU-Sim PTX: 2800000 instructions simulated : ctaid=(25,12,0) tid=(5,5,0)
GPGPU-Sim PTX: 2900000 instructions simulated : ctaid=(4,7,0) tid=(3,4,0)
GPGPU-Sim PTX: 3000000 instructions simulated : ctaid=(11,14,0) tid=(1,3,0)
GPGPU-Sim PTX: 3100000 instructions simulated : ctaid=(28,3,0) tid=(3,4,0)
GPGPU-Sim PTX: 3200000 instructions simulated : ctaid=(3,0,0) tid=(7,2,0)
GPGPU-Sim uArch: cycles simulated: 10500  inst.: 3187556 (ipc=303.6) sim_rate=70834 (inst/sec) elapsed = 0:0:00:45 / Mon Jun 14 16:32:33 2021
GPGPU-Sim PTX: 3300000 instructions simulated : ctaid=(28,5,0) tid=(3,4,0)
GPGPU-Sim PTX: 3400000 instructions simulated : ctaid=(28,14,0) tid=(3,4,0)
GPGPU-Sim PTX: 3500000 instructions simulated : ctaid=(7,7,0) tid=(5,9,0)
GPGPU-Sim PTX: 3600000 instructions simulated : ctaid=(13,3,0) tid=(9,7,0)
GPGPU-Sim PTX: 3700000 instructions simulated : ctaid=(23,0,0) tid=(3,6,0)
GPGPU-Sim uArch: cycles simulated: 11000  inst.: 3660436 (ipc=332.8) sim_rate=76259 (inst/sec) elapsed = 0:0:00:48 / Mon Jun 14 16:32:36 2021
GPGPU-Sim PTX: 3800000 instructions simulated : ctaid=(2,2,0) tid=(5,3,0)
GPGPU-Sim PTX: 3900000 instructions simulated : ctaid=(29,7,0) tid=(9,9,0)
GPGPU-Sim PTX: 4000000 instructions simulated : ctaid=(17,4,0) tid=(3,0,0)
GPGPU-Sim PTX: 4100000 instructions simulated : ctaid=(20,7,0) tid=(5,7,0)
GPGPU-Sim PTX: 4200000 instructions simulated : ctaid=(1,10,0) tid=(5,3,0)
GPGPU-Sim PTX: 4300000 instructions simulated : ctaid=(3,14,0) tid=(9,9,0)
GPGPU-Sim uArch: cycles simulated: 11500  inst.: 4239088 (ipc=368.6) sim_rate=83119 (inst/sec) elapsed = 0:0:00:51 / Mon Jun 14 16:32:39 2021
GPGPU-Sim PTX: 4400000 instructions simulated : ctaid=(22,2,0) tid=(3,6,0)
GPGPU-Sim PTX: 4500000 instructions simulated : ctaid=(23,14,0) tid=(5,9,0)
GPGPU-Sim PTX: 4600000 instructions simulated : ctaid=(25,10,0) tid=(9,1,0)
GPGPU-Sim PTX: 4700000 instructions simulated : ctaid=(1,13,0) tid=(1,3,0)
GPGPU-Sim PTX: 4800000 instructions simulated : ctaid=(18,10,0) tid=(9,5,0)
GPGPU-Sim PTX: 4900000 instructions simulated : ctaid=(11,2,0) tid=(7,6,0)
GPGPU-Sim uArch: cycles simulated: 12000  inst.: 4813700 (ipc=401.1) sim_rate=90824 (inst/sec) elapsed = 0:0:00:53 / Mon Jun 14 16:32:41 2021
GPGPU-Sim PTX: 5000000 instructions simulated : ctaid=(7,11,0) tid=(3,2,0)
GPGPU-Sim PTX: 5100000 instructions simulated : ctaid=(1,9,0) tid=(5,5,0)
GPGPU-Sim PTX: 5200000 instructions simulated : ctaid=(9,1,0) tid=(3,4,0)
GPGPU-Sim PTX: 5300000 instructions simulated : ctaid=(16,14,0) tid=(7,2,0)
GPGPU-Sim PTX: 5400000 instructions simulated : ctaid=(15,7,0) tid=(9,9,0)
GPGPU-Sim uArch: cycles simulated: 12500  inst.: 5375216 (ipc=430.0) sim_rate=95986 (inst/sec) elapsed = 0:0:00:56 / Mon Jun 14 16:32:44 2021
GPGPU-Sim PTX: 5500000 instructions simulated : ctaid=(1,1,0) tid=(1,3,0)
GPGPU-Sim PTX: 5600000 instructions simulated : ctaid=(14,1,0) tid=(7,6,0)
GPGPU-Sim PTX: 5700000 instructions simulated : ctaid=(21,6,0) tid=(5,1,0)
GPGPU-Sim PTX: 5800000 instructions simulated : ctaid=(25,13,0) tid=(9,3,0)
GPGPU-Sim PTX: 5900000 instructions simulated : ctaid=(19,1,0) tid=(5,9,0)
GPGPU-Sim PTX: 6000000 instructions simulated : ctaid=(25,8,0) tid=(7,6,0)
GPGPU-Sim uArch: cycles simulated: 13000  inst.: 5972612 (ipc=459.4) sim_rate=102976 (inst/sec) elapsed = 0:0:00:58 / Mon Jun 14 16:32:46 2021
GPGPU-Sim PTX: 6100000 instructions simulated : ctaid=(22,4,0) tid=(7,2,0)
GPGPU-Sim PTX: 6200000 instructions simulated : ctaid=(21,13,0) tid=(3,2,0)
GPGPU-Sim PTX: 6300000 instructions simulated : ctaid=(21,6,0) tid=(9,1,0)
GPGPU-Sim PTX: 6400000 instructions simulated : ctaid=(24,9,0) tid=(1,1,0)
GPGPU-Sim PTX: 6500000 instructions simulated : ctaid=(9,5,0) tid=(3,8,0)
GPGPU-Sim PTX: 6600000 instructions simulated : ctaid=(14,14,0) tid=(7,0,0)
GPGPU-Sim uArch: cycles simulated: 13500  inst.: 6569168 (ipc=486.6) sim_rate=107691 (inst/sec) elapsed = 0:0:01:01 / Mon Jun 14 16:32:49 2021
GPGPU-Sim PTX: 6700000 instructions simulated : ctaid=(7,1,0) tid=(1,7,0)
GPGPU-Sim PTX: 6800000 instructions simulated : ctaid=(0,3,0) tid=(1,3,0)
GPGPU-Sim PTX: 6900000 instructions simulated : ctaid=(14,12,0) tid=(7,6,0)
GPGPU-Sim PTX: 7000000 instructions simulated : ctaid=(2,2,0) tid=(7,2,0)
GPGPU-Sim PTX: 7100000 instructions simulated : ctaid=(5,14,0) tid=(7,0,0)
GPGPU-Sim uArch: cycles simulated: 14000  inst.: 7095384 (ipc=506.8) sim_rate=110865 (inst/sec) elapsed = 0:0:01:04 / Mon Jun 14 16:32:52 2021
GPGPU-Sim PTX: 7200000 instructions simulated : ctaid=(4,0,0) tid=(7,8,0)
GPGPU-Sim PTX: 7300000 instructions simulated : ctaid=(18,5,0) tid=(3,4,0)
GPGPU-Sim PTX: 7400000 instructions simulated : ctaid=(26,3,0) tid=(5,3,0)
GPGPU-Sim PTX: 7500000 instructions simulated : ctaid=(19,3,0) tid=(5,7,0)
GPGPU-Sim PTX: 7600000 instructions simulated : ctaid=(3,13,0) tid=(7,4,0)
GPGPU-Sim PTX: 7700000 instructions simulated : ctaid=(24,6,0) tid=(3,4,0)
GPGPU-Sim uArch: cycles simulated: 14500  inst.: 7652124 (ipc=527.7) sim_rate=115941 (inst/sec) elapsed = 0:0:01:06 / Mon Jun 14 16:32:54 2021
GPGPU-Sim PTX: 7800000 instructions simulated : ctaid=(17,1,0) tid=(5,7,0)
GPGPU-Sim PTX: 7900000 instructions simulated : ctaid=(19,11,0) tid=(7,0,0)
GPGPU-Sim PTX: 8000000 instructions simulated : ctaid=(0,1,0) tid=(5,7,0)
GPGPU-Sim PTX: 8100000 instructions simulated : ctaid=(17,8,0) tid=(9,5,0)
GPGPU-Sim PTX: 8200000 instructions simulated : ctaid=(16,0,0) tid=(3,6,0)
GPGPU-Sim PTX: 8300000 instructions simulated : ctaid=(1,3,0) tid=(1,5,0)
GPGPU-Sim uArch: cycles simulated: 15000  inst.: 8204300 (ipc=547.0) sim_rate=118902 (inst/sec) elapsed = 0:0:01:09 / Mon Jun 14 16:32:57 2021
GPGPU-Sim PTX: 8400000 instructions simulated : ctaid=(9,3,0) tid=(7,2,0)
GPGPU-Sim PTX: 8500000 instructions simulated : ctaid=(13,9,0) tid=(9,1,0)
GPGPU-Sim PTX: 8600000 instructions simulated : ctaid=(15,1,0) tid=(7,6,0)
GPGPU-Sim PTX: 8700000 instructions simulated : ctaid=(29,11,0) tid=(1,9,0)
GPGPU-Sim PTX: 8800000 instructions simulated : ctaid=(6,6,0) tid=(7,0,0)
GPGPU-Sim uArch: cycles simulated: 15500  inst.: 8712640 (ipc=562.1) sim_rate=122713 (inst/sec) elapsed = 0:0:01:11 / Mon Jun 14 16:32:59 2021
GPGPU-Sim PTX: 8900000 instructions simulated : ctaid=(4,11,0) tid=(5,1,0)
GPGPU-Sim PTX: 9000000 instructions simulated : ctaid=(6,3,0) tid=(9,3,0)
GPGPU-Sim PTX: 9100000 instructions simulated : ctaid=(17,12,0) tid=(9,5,0)
GPGPU-Sim PTX: 9200000 instructions simulated : ctaid=(11,5,0) tid=(3,6,0)
GPGPU-Sim PTX: 9300000 instructions simulated : ctaid=(13,7,0) tid=(5,9,0)
GPGPU-Sim uArch: cycles simulated: 16000  inst.: 9272724 (ipc=579.5) sim_rate=125307 (inst/sec) elapsed = 0:0:01:14 / Mon Jun 14 16:33:02 2021
GPGPU-Sim PTX: 9400000 instructions simulated : ctaid=(21,4,0) tid=(7,8,0)
GPGPU-Sim PTX: 9500000 instructions simulated : ctaid=(17,13,0) tid=(9,9,0)
GPGPU-Sim PTX: 9600000 instructions simulated : ctaid=(21,7,0) tid=(7,8,0)
GPGPU-Sim PTX: 9700000 instructions simulated : ctaid=(23,2,0) tid=(3,4,0)
GPGPU-Sim PTX: 9800000 instructions simulated : ctaid=(9,2,0) tid=(9,7,0)
GPGPU-Sim PTX: 9900000 instructions simulated : ctaid=(9,5,0) tid=(7,8,0)
GPGPU-Sim uArch: cycles simulated: 16500  inst.: 9869560 (ipc=598.2) sim_rate=128176 (inst/sec) elapsed = 0:0:01:17 / Mon Jun 14 16:33:05 2021
GPGPU-Sim PTX: 10000000 instructions simulated : ctaid=(24,13,0) tid=(3,6,0)
GPGPU-Sim PTX: 10100000 instructions simulated : ctaid=(23,10,0) tid=(1,1,0)
GPGPU-Sim PTX: 10200000 instructions simulated : ctaid=(0,12,0) tid=(3,2,0)
GPGPU-Sim PTX: 10300000 instructions simulated : ctaid=(19,12,0) tid=(9,1,0)
GPGPU-Sim PTX: 10400000 instructions simulated : ctaid=(5,13,0) tid=(7,2,0)
GPGPU-Sim PTX: 10500000 instructions simulated : ctaid=(1,14,0) tid=(5,5,0)
GPGPU-Sim uArch: cycles simulated: 17000  inst.: 10439928 (ipc=614.1) sim_rate=132150 (inst/sec) elapsed = 0:0:01:19 / Mon Jun 14 16:33:07 2021
GPGPU-Sim PTX: 10600000 instructions simulated : ctaid=(16,7,0) tid=(7,0,0)
GPGPU-Sim PTX: 10700000 instructions simulated : ctaid=(14,13,0) tid=(9,3,0)
GPGPU-Sim PTX: 10800000 instructions simulated : ctaid=(9,6,0) tid=(1,9,0)
GPGPU-Sim PTX: 10900000 instructions simulated : ctaid=(12,7,0) tid=(9,3,0)
GPGPU-Sim PTX: 11000000 instructions simulated : ctaid=(16,7,0) tid=(3,0,0)
GPGPU-Sim PTX: 11100000 instructions simulated : ctaid=(24,13,0) tid=(5,5,0)
GPGPU-Sim uArch: cycles simulated: 17500  inst.: 11012696 (ipc=629.3) sim_rate=134301 (inst/sec) elapsed = 0:0:01:22 / Mon Jun 14 16:33:10 2021
GPGPU-Sim PTX: 11200000 instructions simulated : ctaid=(15,4,0) tid=(9,7,0)
GPGPU-Sim PTX: 11300000 instructions simulated : ctaid=(28,13,0) tid=(1,3,0)
GPGPU-Sim PTX: 11400000 instructions simulated : ctaid=(14,13,0) tid=(1,7,0)
GPGPU-Sim PTX: 11500000 instructions simulated : ctaid=(2,13,0) tid=(5,9,0)
GPGPU-Sim PTX: 11600000 instructions simulated : ctaid=(6,3,0) tid=(7,4,0)
GPGPU-Sim uArch: cycles simulated: 18000  inst.: 11568972 (ipc=642.7) sim_rate=137725 (inst/sec) elapsed = 0:0:01:24 / Mon Jun 14 16:33:12 2021
GPGPU-Sim PTX: 11700000 instructions simulated : ctaid=(5,1,0) tid=(3,2,0)
GPGPU-Sim PTX: 11800000 instructions simulated : ctaid=(22,3,0) tid=(1,3,0)
GPGPU-Sim PTX: 11900000 instructions simulated : ctaid=(23,11,0) tid=(5,9,0)
GPGPU-Sim PTX: 12000000 instructions simulated : ctaid=(0,5,0) tid=(3,4,0)
GPGPU-Sim PTX: 12100000 instructions simulated : ctaid=(17,9,0) tid=(9,7,0)
GPGPU-Sim PTX: 12200000 instructions simulated : ctaid=(1,5,0) tid=(1,9,0)
GPGPU-Sim uArch: cycles simulated: 18500  inst.: 12177060 (ipc=658.2) sim_rate=139966 (inst/sec) elapsed = 0:0:01:27 / Mon Jun 14 16:33:15 2021
GPGPU-Sim PTX: 12300000 instructions simulated : ctaid=(17,11,0) tid=(9,3,0)
GPGPU-Sim PTX: 12400000 instructions simulated : ctaid=(15,9,0) tid=(5,7,0)
GPGPU-Sim PTX: 12500000 instructions simulated : ctaid=(24,6,0) tid=(9,9,0)
GPGPU-Sim PTX: 12600000 instructions simulated : ctaid=(9,6,0) tid=(9,1,0)
GPGPU-Sim PTX: 12700000 instructions simulated : ctaid=(1,4,0) tid=(7,6,0)
GPGPU-Sim uArch: cycles simulated: 19000  inst.: 12691948 (ipc=668.0) sim_rate=142606 (inst/sec) elapsed = 0:0:01:29 / Mon Jun 14 16:33:17 2021
GPGPU-Sim PTX: 12800000 instructions simulated : ctaid=(8,0,0) tid=(3,4,0)
GPGPU-Sim PTX: 12900000 instructions simulated : ctaid=(11,4,0) tid=(7,0,0)
GPGPU-Sim PTX: 13000000 instructions simulated : ctaid=(6,7,0) tid=(7,0,0)
GPGPU-Sim PTX: 13100000 instructions simulated : ctaid=(27,4,0) tid=(7,8,0)
GPGPU-Sim PTX: 13200000 instructions simulated : ctaid=(2,12,0) tid=(9,1,0)
GPGPU-Sim PTX: 13300000 instructions simulated : ctaid=(29,8,0) tid=(7,8,0)
GPGPU-Sim uArch: cycles simulated: 19500  inst.: 13289232 (ipc=681.5) sim_rate=144448 (inst/sec) elapsed = 0:0:01:32 / Mon Jun 14 16:33:20 2021
GPGPU-Sim PTX: 13400000 instructions simulated : ctaid=(8,10,0) tid=(3,2,0)
GPGPU-Sim PTX: 13500000 instructions simulated : ctaid=(27,3,0) tid=(7,0,0)
GPGPU-Sim PTX: 13600000 instructions simulated : ctaid=(3,4,0) tid=(3,8,0)
GPGPU-Sim PTX: 13700000 instructions simulated : ctaid=(16,5,0) tid=(1,7,0)
GPGPU-Sim PTX: 13800000 instructions simulated : ctaid=(1,0,0) tid=(5,3,0)
GPGPU-Sim PTX: 13900000 instructions simulated : ctaid=(14,10,0) tid=(1,9,0)
GPGPU-Sim uArch: cycles simulated: 20000  inst.: 13864120 (ipc=693.2) sim_rate=145938 (inst/sec) elapsed = 0:0:01:35 / Mon Jun 14 16:33:23 2021
GPGPU-Sim PTX: 14000000 instructions simulated : ctaid=(24,3,0) tid=(9,1,0)
GPGPU-Sim PTX: 14100000 instructions simulated : ctaid=(23,11,0) tid=(3,4,0)
GPGPU-Sim PTX: 14200000 instructions simulated : ctaid=(23,8,0) tid=(3,4,0)
GPGPU-Sim PTX: 14300000 instructions simulated : ctaid=(2,14,0) tid=(3,6,0)
GPGPU-Sim PTX: 14400000 instructions simulated : ctaid=(9,12,0) tid=(1,1,0)
GPGPU-Sim uArch: cycles simulated: 20500  inst.: 14373428 (ipc=701.1) sim_rate=148179 (inst/sec) elapsed = 0:0:01:37 / Mon Jun 14 16:33:25 2021
GPGPU-Sim PTX: 14500000 instructions simulated : ctaid=(15,0,0) tid=(7,0,0)
GPGPU-Sim PTX: 14600000 instructions simulated : ctaid=(3,13,0) tid=(9,9,0)
GPGPU-Sim PTX: 14700000 instructions simulated : ctaid=(16,4,0) tid=(1,1,0)
GPGPU-Sim PTX: 14800000 instructions simulated : ctaid=(8,4,0) tid=(5,5,0)
GPGPU-Sim PTX: 14900000 instructions simulated : ctaid=(15,12,0) tid=(1,5,0)
GPGPU-Sim PTX: 15000000 instructions simulated : ctaid=(1,9,0) tid=(3,4,0)
GPGPU-Sim uArch: cycles simulated: 21000  inst.: 14993076 (ipc=714.0) sim_rate=149930 (inst/sec) elapsed = 0:0:01:40 / Mon Jun 14 16:33:28 2021
GPGPU-Sim PTX: 15100000 instructions simulated : ctaid=(18,3,0) tid=(1,3,0)
GPGPU-Sim PTX: 15200000 instructions simulated : ctaid=(15,4,0) tid=(9,1,0)
GPGPU-Sim PTX: 15300000 instructions simulated : ctaid=(18,6,0) tid=(7,4,0)
GPGPU-Sim PTX: 15400000 instructions simulated : ctaid=(2,7,0) tid=(9,9,0)
GPGPU-Sim PTX: 15500000 instructions simulated : ctaid=(5,11,0) tid=(7,8,0)
GPGPU-Sim PTX: 15600000 instructions simulated : ctaid=(8,2,0) tid=(7,4,0)
GPGPU-Sim uArch: cycles simulated: 21500  inst.: 15516512 (ipc=721.7) sim_rate=152122 (inst/sec) elapsed = 0:0:01:42 / Mon Jun 14 16:33:30 2021
GPGPU-Sim PTX: 15700000 instructions simulated : ctaid=(28,0,0) tid=(9,1,0)
GPGPU-Sim PTX: 15800000 instructions simulated : ctaid=(10,9,0) tid=(1,3,0)
GPGPU-Sim PTX: 15900000 instructions simulated : ctaid=(14,12,0) tid=(9,3,0)
GPGPU-Sim PTX: 16000000 instructions simulated : ctaid=(7,4,0) tid=(5,5,0)
GPGPU-Sim uArch: cycles simulated: 22000  inst.: 15986528 (ipc=726.7) sim_rate=152252 (inst/sec) elapsed = 0:0:01:45 / Mon Jun 14 16:33:33 2021
GPGPU-Sim PTX: 16100000 instructions simulated : ctaid=(23,13,0) tid=(9,7,0)
[...]
gpgpu_stall_shd_mem[l_mem_ld][wb_icnt_rc] = 0
gpgpu_stall_shd_mem[l_mem_ld][wb_rsrv_fail] = 0
gpu_reg_bank_conflict_stalls = 0
Warp Occupancy Distribution:
Stall:1679867	W0_Idle:4653216	W0_Scoreboard:49270485	W1:0	W2:0	W3:0	W4:1232100	W5:0	W6:0	W7:0	W8:0	W9:0	W10:0	W11:0	W12:0	W13:0	W14:0	W15:0	W16:0	W17:0	W18:0	W19:0	W20:0	W21:0	W22:0	W23:0	W24:0	W25:0	W26:0	W27:0	W28:0	W29:0	W30:0	W31:0	W32:3696300
traffic_breakdown_coretomem[CONST_ACC_R] = 1920 {8:240,}
traffic_breakdown_coretomem[GLOBAL_ACC_R] = 1089528 {8:136191,}
traffic_breakdown_coretomem[GLOBAL_ACC_W] = 442464 {40:3764,72:2086,136:1042,}
traffic_breakdown_coretomem[INST_ACC_R] = 7680 {8:960,}
traffic_breakdown_memtocore[CONST_ACC_R] = 17280 {72:240,}
traffic_breakdown_memtocore[GLOBAL_ACC_R] = 18521976 {136:136191,}
traffic_breakdown_memtocore[GLOBAL_ACC_W] = 55136 {8:6892,}
traffic_breakdown_memtocore[INST_ACC_R] = 130560 {136:960,}
maxmrqlatency = 41 
maxdqlatency = 0 
maxmflatency = 4560 
averagemflatency = 423 
max_icnt2mem_latency = 6285 
max_icnt2sh_latency = 126375 
mrq_lat_table:4073 	103 	7 	14 	30 	2 	0 	0 	0 	0 	0 	0 	0 	0 	0 	0 	0 	0 	0 	0 	0 	0 	0 	0 	0 	0 	0 	0 	0 	0 	0 	0 	
dq_lat_table:0 	0 	0 	0 	0 	0 	0 	0 	0 	0 	0 	0 	0 	0 	0 	0 	0 	0 	0 	0 	0 	0 	0 	0 	0 	0 	0 	0 	0 	0 	0 	0 	
mf_lat_table:0 	0 	0 	0 	0 	0 	0 	36743 	79792 	19941 	5067 	1773 	7 	0 	0 	0 	0 	0 	0 	0 	0 	0 	0 	0 	0 	0 	0 	0 	0 	0 	0 	0 	
icnt2mem_lat_table:0 	0 	0 	59449 	7540 	11098 	19179 	24908 	12360 	3797 	4530 	1263 	159 	0 	0 	0 	0 	0 	0 	0 	0 	0 	0 	0 	
icnt2sh_lat_table:0 	0 	0 	7510 	89805 	37695 	1414 	7 	0 	0 	0 	0 	0 	0 	0 	0 	6892 	0 	0 	0 	0 	0 	0 	0 	
mf_lat_pw_table:0 	0 	0 	0 	0 	0 	0 	0 	225 	9 	13 	1 	0 	0 	0 	0 	0 	0 	0 	0 	0 	0 	0 	0 	0 	0 	0 	0 	0 	0 	0 	0 	
maximum concurrent accesses to same row:
dram[0]:         1         0         0         0        24        32        23        24        27        28        32        32         0         0         0         0 
dram[1]:        32         0         0         0        30        17        23        24        29        28        32        32         0         0         0         0 
dram[2]:         0         0         0         0        24        18        23        25        28        28        32        32         0         0         0         0 
dram[3]:         0         0         0         0        24        18        23        24        29        28        32        32         0         0         0         0 
dram[4]:         0         0         0         0        32        22        23        25        28        28        32        32         0         0         0         0 
dram[5]:         0         0         0         0        20        22        24        24        28        28        32        32         0         0         0         0 
maximum service time to same row:
dram[0]:     29898     33597     48318     48994     59242     58857     74632     75640     90302     91387    105852    106379      6916      3950     17784     18193 
dram[1]:     87971     33572     48509     48894     49431     60084     75329     75700     91150     91056    105849    105619      6168      4513     17835     18319 
dram[2]:     33163     33766     48575     49485     59677     60450     75179     75944     90469     91735    105885    106165      5257      4516     18231     18315 
dram[3]:     33206     33509     48888     49124     51184     60280     75300     75902     91407     90462    106186    106272      5650      5224     17982     18416 
dram[4]:     33166     33982     48794     49177     60047     60308     75497     76057     90613     92160    106286    106839      4316      5088     17928     18471 
dram[5]:     33210     33947     48866     49265     59949     59448     75741     76166     91017     91866    105555    107052      4329      5143     18102     18887 
average row accesses per activate:
dram[0]:  8.750000 32.000000 32.000000 32.000000  6.000000 14.000000  5.818182  5.818182  5.333333  6.400000 27.000000 27.500000 32.000000 32.000000 32.000000 32.000000 
dram[1]: 11.333333 32.000000 32.000000 32.000000  8.400000  6.000000  5.818182  5.818182  8.000000  6.400000 27.000000 27.000000 32.000000 32.000000 32.000000 32.000000 
dram[2]: 32.000000 32.000000 32.000000 32.000000  4.666667  8.800000  4.923077  5.818182  6.400000  6.400000 27.000000 26.000000 32.000000 32.000000 32.000000 32.000000 
dram[3]: 32.000000 32.000000 32.000000 32.000000  6.000000  8.800000  5.818182  5.818182  8.000000  6.400000 27.000000 26.000000 31.000000 32.000000 32.000000 32.000000 
dram[4]: 32.000000 32.000000 32.000000 32.000000 14.000000  6.285714  5.818182  7.111111  6.400000  6.400000 27.000000 26.000000 32.000000 32.000000 32.000000 32.000000 
dram[5]: 32.000000 32.000000 32.000000 32.000000  6.000000  8.800000  5.818182  5.818182  6.400000  6.400000 27.000000 26.000000 32.000000 32.000000 32.000000 32.000000 
average row locality = 4229/397 = 10.652393
number of total memory accesses made:
dram[0]:         0         0         0         0         0         0         0         0         0         0         0         0         0         0         0         0 
dram[1]:         0         0         0         0         0         0         0         0         0         0         0         0         0         0         0         0 
dram[2]:         0         0         0         0         0         0         0         0         0         0         0         0         0         0         0         0 
dram[3]:         0         0         0         0         0         0         0         0         0         0         0         0         0         0         0         0 
dram[4]:         0         0         0         0         0         0         0         0         0         0         0         0         0         0         0         0 
dram[5]:         0         0         0         0         0         0         0         0         0         0         0         0         0         0         0         0 
total accesses: 0
min_bank_accesses = 0!
min_chip_accesses = 0!
number of total read accesses:
dram[0]:        35        32        32        32        42        42        64        64        64        64        54        54        32        32        32        32 
dram[1]:        34        32        32        32        42        42        64        64        64        64        54        53        32        32        32        32 
dram[2]:        32        32        32        32        42        44        64        64        64        64        54        52        32        32        32        32 
dram[3]:        32        32        32        32        42        44        64        64        64        64        54        52        31        32        32        32 
dram[4]:        32        32        32        32        42        44        64        64        64        64        54        52        32        32        32        32 
dram[5]:        32        32        32        32        42        44        64        64        64        64        54        52        32        32        32        32 
total reads: 4227
bank skew: 64/31 = 2.06
chip skew: 707/703 = 1.01
number of total write accesses:
dram[0]:         0         0         0         0         0         0         0         0         0         0         0         1         0         0         0         0 
dram[1]:         0         0         0         0         0         0         0         0         0         0         0         1         0         0         0         0 
dram[2]:         0         0         0         0         0         0         0         0         0         0         0         0         0         0         0         0 
dram[3]:         0         0         0         0         0         0         0         0         0         0         0         0         0         0         0         0 
dram[4]:         0         0         0         0         0         0         0         0         0         0         0         0         0         0         0         0 
dram[5]:         0         0         0         0         0         0         0         0         0         0         0         0         0         0         0         0 
total reads: 2
min_bank_accesses = 0!
min_chip_accesses = 0!
average mf latency per bank:
dram[0]:      18776      9668     11081     11192     16303     16597     16318     15947     14997     15084     16370     13937     11836     16233     10840     10419
dram[1]:       9953     10649     10040     10143     14878     16393     17415     16717     16502     15450     15822     13896     17174     12864     10995      9619
dram[2]:      11078     11310     10204      9874     17011     17050     17190     15473     15207     17573     15602     15289     13133     17071     10395     10259
dram[3]:       9857     11306     11319     11988     15077     14004     15257     17026     16855     16413     14656     14370     14526     11068     10579      9849
dram[4]:      10351     10791     11911     10622     18425     15278     15885     15408     14862     16435     15387     16068     16278     14189      9669     10099
dram[5]:      10449     10961     10544      9554     15590     15900     17229     16679     16962     16578     16574     15182     16375     14153      9626     11556
maximum mf latency per bank:
dram[0]:       1522       889       919       886      3241      3882      3577      4094      3638      3225      3813      3320      1937      3764       757       632
dram[1]:        712       736       732       676      3867      3225      4560      3877      3697      3933      4131      3384      4073      2346       682       614
dram[2]:        896       847      1011       858      3886      4374      3849      4123      3933      3737      3388      3780      3394      3859       731       691
dram[3]:        965       779       938       918      3894      3199      3472      3512      3913      3938      3772      3707      3813      2221       775       784
dram[4]:        731       771       868       731      3138      3896      3374      3562      2632      3205      3803      3867      3299      3313       641       722
dram[5]:       1012      1063       817       939      3884      4040      3926      4114      3753      3953      3930      3509      3914      3831       596      1027

Number of Memory Banks Accessed per Memory Operation per Warp (from 0):
0	0	0	0	0	0	0	0	0	0	0	0	0	0	0	0	0	0	0	0	0	0	0	0	0	0	0	0	0	0	0	0	0	0	0	0	0	0	0	0	0	0	0	0	0	0	0	0	0	0	0	0	0	0	0	0	0	0	0	0	0	0	0	0	0	0	0	0	0	0	0	0	0	0	0	0	0	0	0	0	0	0	0	0	0	0	0	0	0	0	0	0	0	0	0	0	
Average # of Memory Banks Accessed per Memory Operation per Warp=-nan

position of mrq chosen
0	0	0	0	0	0	0	0	0	0	0	0	0	0	0	0	

average position of mrq chosen = -nan
Memory Partition 0: 
Cache L2_bank_000:
MSHR contents

Cache L2_bank_001:
MSHR contents

In Dram Latency Queue (total = 0): 
DRAM[0]: 16 bks, busW=4 BL=8 CL=12, tRRD=2 tCCD=6, tRCD=12 tRAS=28 tRP=12 tRC=40
n_cmd=166815 n_nop=165278 n_act=69 n_pre=53 n_req=708 n_rd=1414 n_write=1 bw_util=0.01696
n_activity=11738 dram_eff=0.2411
bk0: 70a 166590i bk1: 64a 166675i bk2: 64a 166685i bk3: 64a 166688i bk4: 84a 166503i bk5: 84a 166596i bk6: 128a 166302i bk7: 128a 166291i bk8: 128a 166247i bk9: 128a 166275i bk10: 108a 166519i bk11: 108a 166517i bk12: 64a 166664i bk13: 64a 166649i bk14: 64a 166664i bk15: 64a 166656i 
dram_util_bins: 0 0 0 0 0 0 0 0 0 0
dram_eff_bins: 0 0 0 0 0 0 0 0 0 0
mrqq: max=1 avg=0.00116896
Memory Partition 1: 
Cache L2_bank_002:
MSHR contents

Cache L2_bank_003:
MSHR contents

In Dram Latency Queue (total = 0): 
DRAM[1]: 16 bks, busW=4 BL=8 CL=12, tRRD=2 tCCD=6, tRCD=12 tRAS=28 tRP=12 tRC=40
n_cmd=166815 n_nop=165288 n_act=66 n_pre=50 n_req=706 n_rd=1410 n_write=1 bw_util=0.01692
n_activity=11539 dram_eff=0.2446
bk0: 68a 166620i bk1: 64a 166668i bk2: 64a 166676i bk3: 64a 166674i bk4: 84a 166548i bk5: 84a 166494i bk6: 128a 166298i bk7: 128a 166287i bk8: 128a 166329i bk9: 128a 166295i bk10: 108a 166513i bk11: 106a 166529i bk12: 64a 166638i bk13: 64a 166659i bk14: 64a 166658i bk15: 64a 166667i 
dram_util_bins: 0 0 0 0 0 0 0 0 0 0
dram_eff_bins: 0 0 0 0 0 0 0 0 0 0
mrqq: max=1 avg=0.000761322
Memory Partition 2: 
Cache L2_bank_004:
MSHR contents

Cache L2_bank_005:
MSHR contents

In Dram Latency Queue (total = 0): 
DRAM[2]: 16 bks, busW=4 BL=8 CL=12, tRRD=2 tCCD=6, tRCD=12 tRAS=28 tRP=12 tRC=40
n_cmd=166815 n_nop=165283 n_act=70 n_pre=54 n_req=704 n_rd=1408 n_write=0 bw_util=0.01688
n_activity=11515 dram_eff=0.2446
bk0: 64a 166668i bk1: 64a 166683i bk2: 64a 166685i bk3: 64a 166687i bk4: 84a 166449i bk5: 88a 166526i bk6: 128a 166248i bk7: 128a 166276i bk8: 128a 166266i bk9: 128a 166286i bk10: 108a 166505i bk11: 104a 166533i bk12: 64a 166648i bk13: 64a 166662i bk14: 64a 166661i bk15: 64a 166660i 
dram_util_bins: 0 0 0 0 0 0 0 0 0 0
dram_eff_bins: 0 0 0 0 0 0 0 0 0 0
mrqq: max=2 avg=0.00152864
Memory Partition 3: 
Cache L2_bank_006:
MSHR contents

Cache L2_bank_007:
MSHR contents

In Dram Latency Queue (total = 0): 
DRAM[3]: 16 bks, busW=4 BL=8 CL=12, tRRD=2 tCCD=6, tRCD=12 tRAS=28 tRP=12 tRC=40
n_cmd=166815 n_nop=165297 n_act=64 n_pre=48 n_req=703 n_rd=1406 n_write=0 bw_util=0.01686
n_activity=11381 dram_eff=0.2471
bk0: 64a 166675i bk1: 64a 166671i bk2: 64a 166684i bk3: 64a 166685i bk4: 84a 166501i bk5: 88a 166538i bk6: 128a 166291i bk7: 128a 166284i bk8: 128a 166342i bk9: 128a 166285i bk10: 108a 166517i bk11: 104a 166524i bk12: 62a 166654i bk13: 64a 166656i bk14: 64a 166660i bk15: 64a 166672i 
dram_util_bins: 0 0 0 0 0 0 0 0 0 0
dram_eff_bins: 0 0 0 0 0 0 0 0 0 0
mrqq: max=1 avg=0.00148068
Memory Partition 4: 
Cache L2_bank_008:
MSHR contents

Cache L2_bank_009:
MSHR contents

In Dram Latency Queue (total = 0): 
DRAM[4]: 16 bks, busW=4 BL=8 CL=12, tRRD=2 tCCD=6, tRCD=12 tRAS=28 tRP=12 tRC=40
n_cmd=166815 n_nop=165299 n_act=62 n_pre=46 n_req=704 n_rd=1408 n_write=0 bw_util=0.01688
n_activity=11337 dram_eff=0.2484
bk0: 64a 166673i bk1: 64a 166680i bk2: 64a 166679i bk3: 64a 166685i bk4: 84a 166600i bk5: 88a 166486i bk6: 128a 166291i bk7: 128a 166334i bk8: 128a 166304i bk9: 128a 166291i bk10: 108a 166517i bk11: 104a 166527i bk12: 64a 166649i bk13: 64a 166656i bk14: 64a 166657i bk15: 64a 166656i 
dram_util_bins: 0 0 0 0 0 0 0 0 0 0
dram_eff_bins: 0 0 0 0 0 0 0 0 0 0
mrqq: max=1 avg=0.000971136
Memory Partition 5: 
Cache L2_bank_010:
MSHR contents

Cache L2_bank_011:
MSHR contents

In Dram Latency Queue (total = 0): 
DRAM[5]: 16 bks, busW=4 BL=8 CL=12, tRRD=2 tCCD=6, tRCD=12 tRAS=28 tRP=12 tRC=40
n_cmd=166815 n_nop=165291 n_act=66 n_pre=50 n_req=704 n_rd=1408 n_write=0 bw_util=0.01688
n_activity=11414 dram_eff=0.2467
bk0: 64a 166671i bk1: 64a 166689i bk2: 64a 166689i bk3: 64a 166687i bk4: 84a 166499i bk5: 88a 166534i bk6: 128a 166284i bk7: 128a 166273i bk8: 128a 166278i bk9: 128a 166278i bk10: 108a 166522i bk11: 104a 166529i bk12: 64a 166654i bk13: 64a 166661i bk14: 64a 166667i bk15: 64a 166658i 
dram_util_bins: 0 0 0 0 0 0 0 0 0 0
dram_eff_bins: 0 0 0 0 0 0 0 0 0 0
mrqq: max=2 avg=0.00192429

========= L2 cache stats =========
L2_cache_bank[0]: Access = 12624, Miss = 355, Miss_rate = 0.028, Pending_hits = 729, Reservation_fails = 11045
L2_cache_bank[1]: Access = 11890, Miss = 352, Miss_rate = 0.030, Pending_hits = 691, Reservation_fails = 10313
L2_cache_bank[2]: Access = 12447, Miss = 354, Miss_rate = 0.028, Pending_hits = 742, Reservation_fails = 10982
L2_cache_bank[3]: Access = 11869, Miss = 351, Miss_rate = 0.030, Pending_hits = 719, Reservation_fails = 10974
L2_cache_bank[4]: Access = 11981, Miss = 352, Miss_rate = 0.029, Pending_hits = 737, Reservation_fails = 10521
L2_cache_bank[5]: Access = 11950, Miss = 352, Miss_rate = 0.029, Pending_hits = 719, Reservation_fails = 11355
L2_cache_bank[6]: Access = 11871, Miss = 351, Miss_rate = 0.030, Pending_hits = 719, Reservation_fails = 10968
L2_cache_bank[7]: Access = 11828, Miss = 352, Miss_rate = 0.030, Pending_hits = 734, Reservation_fails = 11191
L2_cache_bank[8]: Access = 11992, Miss = 352, Miss_rate = 0.029, Pending_hits = 748, Reservation_fails = 10666
L2_cache_bank[9]: Access = 11936, Miss = 352, Miss_rate = 0.029, Pending_hits = 703, Reservation_fails = 10925
L2_cache_bank[10]: Access = 11988, Miss = 352, Miss_rate = 0.029, Pending_hits = 742, Reservation_fails = 10520
L2_cache_bank[11]: Access = 11907, Miss = 352, Miss_rate = 0.030, Pending_hits = 706, Reservation_fails = 10381
L2_total_cache_accesses = 144283
L2_total_cache_misses = 4227
L2_total_cache_miss_rate = 0.0293
L2_total_cache_pending_hits = 8689
L2_total_cache_reservation_fails = 129841
L2_total_cache_breakdown:
	L2_cache_stats_breakdown[GLOBAL_ACC_R][HIT] = 123294
	L2_cache_stats_breakdown[GLOBAL_ACC_R][HIT_RESERVED] = 8677
	L2_cache_stats_breakdown[GLOBAL_ACC_R][MISS] = 4220
	L2_cache_stats_breakdown[GLOBAL_ACC_R][RESERVATION_FAIL] = 129438
	L2_cache_stats_breakdown[CONST_ACC_R][HIT] = 236
	L2_cache_stats_breakdown[CONST_ACC_R][HIT_RESERVED] = 3
	L2_cache_stats_breakdown[CONST_ACC_R][MISS] = 1
	L2_cache_stats_breakdown[CONST_ACC_R][RESERVATION_FAIL] = 129
	L2_cache_stats_breakdown[GLOBAL_ACC_W][HIT] = 6890
	L2_cache_stats_breakdown[GLOBAL_ACC_W][MISS] = 2
	L2_cache_stats_breakdown[INST_ACC_R][HIT] = 947
	L2_cache_stats_breakdown[INST_ACC_R][HIT_RESERVED] = 9
	L2_cache_stats_breakdown[INST_ACC_R][MISS] = 4
	L2_cache_stats_breakdown[INST_ACC_R][RESERVATION_FAIL] = 274
L2_cache_data_port_util = 0.336
L2_cache_fill_port_util = 0.011

icnt_total_pkts_mem_to_simt=693367
icnt_total_pkts_simt_to_mem=156387
LD_mem_lat_dist  0 0 0 0 0 0 0 0 0 0 0 0 0 0 0 0 0 0 0 0 0 0 0 0 0 0 0
ST_mem_lat_dist  0 0 0 0 0 0 0 0 0 0 0 0 0 0 0 0 0 0 0 0 0 0 0 0 0 0 0
----------------------------Interconnect-DETAILS--------------------------------
Class 0:
Packet latency average = 43.4089
	minimum = 6
	maximum = 1272
Network latency average = 30.714
	minimum = 6
	maximum = 1102
Slowest packet = 175
Flit latency average = 19.0868
	minimum = 6
	maximum = 1102
Slowest flit = 32087
Fragmentation average = 0
	minimum = 0
	maximum = 0
Injected packet rate average = 0.0845701
	minimum = 0.0760667 (at node 2)
	maximum = 0.0998924 (at node 15)
Accepted packet rate average = 0.0845701
	minimum = 0.0760667 (at node 2)
	maximum = 0.0998924 (at node 15)
Injected flit rate average = 0.249038
	minimum = 0.0823495 (at node 12)
	maximum = 0.477686 (at node 15)
Accepted flit rate average= 0.249038
	minimum = 0.101356 (at node 22)
	maximum = 0.366043 (at node 10)
Injected packet length average = 2.94475
Accepted packet length average = 2.94475
Total in-flight flits = 0 (0 measured)
====== Overall Traffic Statistics ======
====== Traffic class 0 ======
Packet latency average = 43.4089 (1 samples)
	minimum = 6 (1 samples)
	maximum = 1272 (1 samples)
Network latency average = 30.714 (1 samples)
	minimum = 6 (1 samples)
	maximum = 1102 (1 samples)
Flit latency average = 19.0868 (1 samples)
	minimum = 6 (1 samples)
	maximum = 1102 (1 samples)
Fragmentation average = 0 (1 samples)
	minimum = 0 (1 samples)
	maximum = 0 (1 samples)
Injected packet rate average = 0.0845701 (1 samples)
	minimum = 0.0760667 (1 samples)
	maximum = 0.0998924 (1 samples)
Accepted packet rate average = 0.0845701 (1 samples)
	minimum = 0.0760667 (1 samples)
	maximum = 0.0998924 (1 samples)
Injected flit rate average = 0.249038 (1 samples)
	minimum = 0.0823495 (1 samples)
	maximum = 0.477686 (1 samples)
Accepted flit rate average = 0.249038 (1 samples)
	minimum = 0.101356 (1 samples)
	maximum = 0.366043 (1 samples)
Injected packet size average = 2.94475 (1 samples)
Accepted packet size average = 2.94475 (1 samples)
Hops average = 1 (1 samples)
----------------------------END-of-Interconnect-DETAILS-------------------------


gpgpu_simulation_time = 0 days, 0 hrs, 10 min, 30 sec (630 sec)
gpgpu_simulation_rate = 195428 (inst/sec)
gpgpu_simulation_rate = 200 (cycle/sec)
total time is 630231 ms
2021-06-14T16:52:51+08:00
