2021-06-14T10:33:23+08:00


        *** GPGPU-Sim Simulator Version 3.2.2  [build 0] ***


GPGPU-Sim PTX: simulation mode 0 (can change with PTX_SIM_MODE_FUNC environment variable:
               1=functional simulation only, 0=detailed performance simulator)
GPGPU-Sim: Configuration options:

-network_mode                           1 # Interconnection network mode
-inter_config_file   config_fermi_islip.icnt # Interconnection network config file
-gpgpu_ptx_use_cuobjdump                    1 # Use cuobjdump to extract ptx and sass from binaries
-gpgpu_experimental_lib_support                    0 # Try to extract code from cuda libraries [Broken because of unknown cudaGetExportTable]
-gpgpu_ptx_convert_to_ptxplus                    0 # Convert SASS (native ISA) to ptxplus and run ptxplus
-gpgpu_ptx_force_max_capability                   20 # Force maximum compute capability
-gpgpu_ptx_inst_debug_to_file                    0 # Dump executed instructions' debug information to file
-gpgpu_ptx_inst_debug_file       inst_debug.txt # Executed instructions' debug output file
-gpgpu_ptx_inst_debug_thread_uid                    1 # Thread UID for executed instructions' debug output
-gpgpu_simd_model                       1 # 1 = post-dominator
-gpgpu_shader_core_pipeline              1536:32 # shader core pipeline config, i.e., {<nthread>:<warpsize>}
-gpgpu_tex_cache:l1  4:128:24,L:R:m:N:L,F:128:4,128:2 # per-shader L1 texture cache  (READ-ONLY) config  {<nsets>:<bsize>:<assoc>,<rep>:<wr>:<alloc>:<wr_alloc>,<mshr>:<N>:<merge>,<mq>:<rf>}
-gpgpu_const_cache:l1 64:64:2,L:R:f:N:L,A:2:32,4 # per-shader L1 constant memory cache  (READ-ONLY) config  {<nsets>:<bsize>:<assoc>,<rep>:<wr>:<alloc>:<wr_alloc>,<mshr>:<N>:<merge>,<mq>} 
-gpgpu_cache:il1     4:128:4,L:R:f:N:L,A:2:32,4 # shader L1 instruction cache config  {<nsets>:<bsize>:<assoc>,<rep>:<wr>:<alloc>:<wr_alloc>,<mshr>:<N>:<merge>,<mq>} 
-gpgpu_cache:dl1     32:128:4,L:L:m:N:H,A:32:8,8 # per-shader L1 data cache config  {<nsets>:<bsize>:<assoc>,<rep>:<wr>:<alloc>:<wr_alloc>,<mshr>:<N>:<merge>,<mq> | none}
-gpgpu_cache:dl1PrefL1                 none # per-shader L1 data cache config  {<nsets>:<bsize>:<assoc>,<rep>:<wr>:<alloc>:<wr_alloc>,<mshr>:<N>:<merge>,<mq> | none}
-gpgpu_cache:dl1PreShared                 none # per-shader L1 data cache config  {<nsets>:<bsize>:<assoc>,<rep>:<wr>:<alloc>:<wr_alloc>,<mshr>:<N>:<merge>,<mq> | none}
-gmem_skip_L1D                          0 # global memory access skip L1D cache (implements -Xptxas -dlcm=cg, default=no skip)
-gpgpu_perfect_mem                      0 # enable perfect memory mode (no cache miss)
-n_regfile_gating_group                    4 # group of lanes that should be read/written together)
-gpgpu_clock_gated_reg_file                    0 # enable clock gated reg file for power calculations
-gpgpu_clock_gated_lanes                    0 # enable clock gated lanes for power calculations
-gpgpu_shader_registers                32768 # Number of registers per shader core. Limits number of concurrent CTAs. (default 8192)
-gpgpu_shader_cta                       8 # Maximum number of concurrent CTAs in shader (default 8)
-gpgpu_num_cta_barriers                   16 # Maximum number of named barriers per CTA (default 16)
-gpgpu_n_clusters                      15 # number of processing clusters
-gpgpu_n_cores_per_cluster                   32 # number of simd cores per cluster
-gpgpu_n_cluster_ejection_buffer_size                    8 # number of packets in ejection buffer
-gpgpu_n_ldst_response_buffer_size                    2 # number of response packets in ld/st unit ejection buffer
-gpgpu_shmem_size                   16384 # Size of shared memory per shader core (default 16kB)
-gpgpu_shmem_size                   49152 # Size of shared memory per shader core (default 16kB)
-gpgpu_shmem_size_PrefL1                16384 # Size of shared memory per shader core (default 16kB)
-gpgpu_shmem_size_PrefShared                16384 # Size of shared memory per shader core (default 16kB)
-gpgpu_shmem_num_banks                   32 # Number of banks in the shared memory in each shader core (default 16)
-gpgpu_shmem_limited_broadcast                    0 # Limit shared memory to do one broadcast per cycle (default on)
-gpgpu_shmem_warp_parts                    1 # Number of portions a warp is divided into for shared memory bank conflict check 
-gpgpu_warpdistro_shader                   -1 # Specify which shader core to collect the warp size distribution from
-gpgpu_warp_issue_shader                    0 # Specify which shader core to collect the warp issue distribution from
-gpgpu_local_mem_map                    1 # Mapping from local memory space address to simulated GPU physical address space (default = enabled)
-gpgpu_num_reg_banks                   16 # Number of register banks (default = 8)
-gpgpu_reg_bank_use_warp_id                    0 # Use warp ID in mapping registers to banks (default = off)
-gpgpu_operand_collector_num_units_sp                    6 # number of collector units (default = 4)
-gpgpu_operand_collector_num_units_sfu                    8 # number of collector units (default = 4)
-gpgpu_operand_collector_num_units_mem                    2 # number of collector units (default = 2)
-gpgpu_operand_collector_num_units_gen                    0 # number of collector units (default = 0)
-gpgpu_operand_collector_num_in_ports_sp                    2 # number of collector unit in ports (default = 1)
-gpgpu_operand_collector_num_in_ports_sfu                    1 # number of collector unit in ports (default = 1)
-gpgpu_operand_collector_num_in_ports_mem                    1 # number of collector unit in ports (default = 1)
-gpgpu_operand_collector_num_in_ports_gen                    0 # number of collector unit in ports (default = 0)
-gpgpu_operand_collector_num_out_ports_sp                    2 # number of collector unit in ports (default = 1)
-gpgpu_operand_collector_num_out_ports_sfu                    1 # number of collector unit in ports (default = 1)
-gpgpu_operand_collector_num_out_ports_mem                    1 # number of collector unit in ports (default = 1)
-gpgpu_operand_collector_num_out_ports_gen                    0 # number of collector unit in ports (default = 0)
-gpgpu_coalesce_arch                   13 # Coalescing arch (default = 13, anything else is off for now)
-gpgpu_num_sched_per_core                    2 # Number of warp schedulers per core
-gpgpu_max_insn_issue_per_warp                    1 # Max number of instructions that can be issued per warp in one cycle by scheduler
-gpgpu_simt_core_sim_order                    1 # Select the simulation order of cores in a cluster (0=Fix, 1=Round-Robin)
-gpgpu_pipeline_widths        2,1,1,2,1,1,2 # Pipeline widths ID_OC_SP,ID_OC_SFU,ID_OC_MEM,OC_EX_SP,OC_EX_SFU,OC_EX_MEM,EX_WB
-gpgpu_num_sp_units                     2 # Number of SP units (default=1)
-gpgpu_num_sfu_units                    1 # Number of SF units (default=1)
-gpgpu_num_mem_units                    1 # Number if ldst units (default=1) WARNING: not hooked up to anything
-gpgpu_scheduler                      gto # Scheduler configuration: < lrr | gto | two_level_active > If two_level_active:<num_active_warps>:<inner_prioritization>:<outer_prioritization>For complete list of prioritization values see shader.h enum scheduler_prioritization_typeDefault: gto
-gpgpu_dram_scheduler                    1 # 0 = fifo, 1 = FR-FCFS (defaul)
-gpgpu_dram_partition_queues              8:8:8:8 # i2$:$2d:d2$:$2i
-l2_ideal                               0 # Use a ideal L2 cache that always hit
-gpgpu_cache:dl2     64:128:8,L:B:m:W:L,A:32:4,4:0,32 # unified banked L2 data cache config  {<nsets>:<bsize>:<assoc>,<rep>:<wr>:<alloc>:<wr_alloc>,<mshr>:<N>:<merge>,<mq>}
-gpgpu_cache:dl2_texture_only                    0 # L2 cache used for texture only
-gpgpu_n_mem                            6 # number of memory modules (e.g. memory controllers) in gpu
-gpgpu_n_sub_partition_per_mchannel                    2 # number of memory subpartition in each memory module
-gpgpu_n_mem_per_ctrlr                    2 # number of memory chips per memory controller
-gpgpu_memlatency_stat                   14 # track and display latency statistics 0x2 enables MC, 0x4 enables queue logs
-gpgpu_frfcfs_dram_sched_queue_size                   16 # 0 = unlimited (default); # entries per chip
-gpgpu_dram_return_queue_size                  116 # 0 = unlimited (default); # entries per chip
-gpgpu_dram_buswidth                    4 # default = 4 bytes (8 bytes per cycle at DDR)
-gpgpu_dram_burst_length                    8 # Burst length of each DRAM request (default = 4 data bus cycle)
-dram_data_command_freq_ratio                    4 # Frequency ratio between DRAM data bus and command bus (default = 2 times, i.e. DDR)
-gpgpu_dram_timing_opt nbk=16:CCD=2:RRD=6:RCD=12:RAS=28:RP=12:RC=40: CL=12:WL=4:CDLR=5:WR=12:nbkgrp=4:CCDL=3:RTPL=2 # DRAM timing parameters = {nbk:tCCD:tRRD:tRCD:tRAS:tRP:tRC:CL:WL:tCDLR:tWR:nbkgrp:tCCDL:tRTPL}
-rop_latency                          120 # ROP queue latency (default 85)
-dram_latency                         100 # DRAM latency (default 30)
-gpgpu_mem_addr_mapping dramid@8;00000000.00000000.00000000.00000000.0000RRRR.RRRRRRRR.BBBCCCCB.CCSSSSSS # mapping memory address to dram model {dramid@<start bit>;<memory address map>}
-gpgpu_mem_addr_test                    0 # run sweep test to check address mapping for aliased address
-gpgpu_mem_address_mask                    1 # 0 = old addressing mask, 1 = new addressing mask, 2 = new add. mask + flipped bank sel and chip sel bits
-gpuwattch_xml_file  gpuwattch_gtx480.xml # GPUWattch XML file
-power_simulation_enabled                    1 # Turn on power simulator (1=On, 0=Off)
-power_per_cycle_dump                    0 # Dump detailed power output each cycle
-power_trace_enabled                    0 # produce a file for the power trace (1=On, 0=Off)
-power_trace_zlevel                     6 # Compression level of the power trace output log (0=no comp, 9=highest)
-steady_power_levels_enabled                    0 # produce a file for the steady power levels (1=On, 0=Off)
-steady_state_definition                  8:4 # allowed deviation:number of samples
-gpgpu_max_cycle                        0 # terminates gpu simulation early (0 = no limit)
-gpgpu_max_insn                         0 # terminates gpu simulation early (0 = no limit)
-gpgpu_max_cta                          0 # terminates gpu simulation early (0 = no limit)
-gpgpu_runtime_stat                   500 # display runtime statistics such as dram utilization {<freq>:<flag>}
-liveness_message_freq                    1 # Minimum number of seconds between simulation liveness messages (0 = always print)
-gpgpu_flush_l1_cache                    0 # Flush L1 cache at the end of each kernel call
-gpgpu_flush_l2_cache                    0 # Flush L2 cache at the end of each kernel call
-gpgpu_deadlock_detect                    1 # Stop the simulation at deadlock (1=on (default), 0=off)
-gpgpu_ptx_instruction_classification                    0 # if enabled will classify ptx instruction types per kernel (Max 255 kernels now)
-gpgpu_ptx_sim_mode                     0 # Select between Performance (default) or Functional simulation (1)
-gpgpu_clock_domains 700.0:700.0:700.0:924.0 # Clock Domain Frequencies in MhZ {<Core Clock>:<ICNT Clock>:<L2 Clock>:<DRAM Clock>}
-gpgpu_max_concurrent_kernel                    8 # maximum kernels that can run concurrently on GPU
-gpgpu_cflog_interval                    0 # Interval between each snapshot in control flow logger
-visualizer_enabled                     0 # Turn on visualizer output (1=On, 0=Off)
-visualizer_outputfile                 NULL # Specifies the output log file for visualizer
-visualizer_zlevel                      6 # Compression level of the visualizer output log (0=no comp, 9=highest)
-trace_enabled                          0 # Turn on traces
-trace_components                    none # comma seperated list of traces to enable. Complete list found in trace_streams.tup. Default none
-trace_sampling_core                    0 # The core which is printed using CORE_DPRINTF. Default 0
-trace_sampling_memory_partition                   -1 # The memory partition which is printed using MEMPART_DPRINTF. Default -1 (i.e. all)
-enable_ptx_file_line_stats                    1 # Turn on PTX source line statistic profiling. (1 = On)
-ptx_line_stats_filename gpgpu_inst_stats.txt # Output file for PTX source line statistics.
-save_embedded_ptx                      0 # saves ptx files embedded in binary as <n>.ptx
-keep                                   0 # keep intermediate files created by GPGPU-Sim when interfacing with external programs
-gpgpu_ptx_save_converted_ptxplus                    0 # Saved converted ptxplus to a file
-ptx_opcode_latency_int         4,13,4,5,145 # Opcode latencies for integers <ADD,MAX,MUL,MAD,DIV>Default 1,1,19,25,145
-ptx_opcode_latency_fp          4,13,4,5,39 # Opcode latencies for single precision floating points <ADD,MAX,MUL,MAD,DIV>Default 1,1,1,1,30
-ptx_opcode_latency_dp         8,19,8,8,330 # Opcode latencies for double precision floating points <ADD,MAX,MUL,MAD,DIV>Default 8,8,8,8,335
-ptx_opcode_initiation_int            1,2,2,1,8 # Opcode initiation intervals for integers <ADD,MAX,MUL,MAD,DIV>Default 1,1,4,4,32
-ptx_opcode_initiation_fp            1,2,1,1,4 # Opcode initiation intervals for single precision floating points <ADD,MAX,MUL,MAD,DIV>Default 1,1,1,1,5
-ptx_opcode_initiation_dp         8,16,8,8,130 # Opcode initiation intervals for double precision floating points <ADD,MAX,MUL,MAD,DIV>Default 8,8,8,8,130
DRAM Timing Options:
nbk                                    16 # number of banks
CCD                                     2 # column to column delay
RRD                                     6 # minimal delay between activation of rows in different banks
RCD                                    12 # row to column delay
RAS                                    28 # time needed to activate row
RP                                     12 # time needed to precharge (deactivate) row
RC                                     40 # row cycle time
CDLR                                    5 # switching from write to read (changes tWTR)
WR                                     12 # last data-in to row precharge
CL                                     12 # CAS latency
WL                                      4 # Write latency
nbkgrp                                  4 # number of bank groups
CCDL                                    3 # column to column delay between accesses to different bank groups
RTPL                                    2 # read to precharge delay between accesses to different bank groups
Total number of memory sub partition = 12
addr_dec_mask[CHIP]  = 0000000000000000 	high:64 low:0
addr_dec_mask[BK]    = 000000000000e100 	high:16 low:8
addr_dec_mask[ROW]   = 000000000fff0000 	high:28 low:16
addr_dec_mask[COL]   = 0000000000001eff 	high:13 low:0
addr_dec_mask[BURST] = 000000000000003f 	high:6 low:0
sub_partition_id_mask = 0000000000000100
GPGPU-Sim uArch: clock freqs: 700000000.000000:700000000.000000:700000000.000000:924000000.000000
GPGPU-Sim uArch: clock periods: 0.00000000142857142857:0.00000000142857142857:0.00000000142857142857:0.00000000108225108225
*** Initializing Memory Statistics ***
GPGPU-Sim uArch: interconnect node map (shaderID+MemID to icntID)
GPGPU-Sim uArch: Memory nodes ID start from index: 15
GPGPU-Sim uArch:    0   1   2   3   4
GPGPU-Sim uArch:    5   6   7   8   9
GPGPU-Sim uArch:   10  11  12  13  14
GPGPU-Sim uArch:   15  16  17  18  19
GPGPU-Sim uArch:   20  21  22  23  24
GPGPU-Sim uArch:   25  26
GPGPU-Sim uArch: interconnect node reverse map (icntID to shaderID+MemID)
GPGPU-Sim uArch: Memory nodes start from ID: 15
GPGPU-Sim uArch:    0   1   2   3   4
GPGPU-Sim uArch:    5   6   7   8   9
GPGPU-Sim uArch:   10  11  12  13  14
GPGPU-Sim uArch:   15  16  17  18  19
GPGPU-Sim uArch:   20  21  22  23  24
GPGPU-Sim uArch:   25  26
61ce1222399f5be18f9f639d49fede27  /home/ly/下载/test/gpgpu-sim_distribution-master/ispass2009-benchmarks-master_2/bin/release/MM
GPGPU-Sim uArch: performance model initialization complete.
GPGPU-Sim PTX: __cudaRegisterFatBinary, fat_cubin_handle = 1, filename=mm.cu
self exe links to: /home/ly/下载/test/gpgpu-sim_distribution-master/ispass2009-benchmarks-master_2/bin/release/MM
Running md5sum using "md5sum /home/ly/下载/test/gpgpu-sim_distribution-master/ispass2009-benchmarks-master_2/bin/release/MM "
Running cuobjdump using "$CUDA_INSTALL_PATH/bin/cuobjdump -ptx -elf -sass /home/ly/下载/test/gpgpu-sim_distribution-master/ispass2009-benchmarks-master_2/bin/release/MM > _cuobjdump_complete_output_zzMKKL"
Parsing file _cuobjdump_complete_output_zzMKKL
######### cuobjdump parser ########
## Adding new section ELF
Adding arch: sm_10
Adding identifier: mm.cu
## Adding new section PTX
Adding ptx filename: _cuobjdump_1.ptx
Adding arch: sm_10
Adding identifier: mm.cu
## Adding new section ELF
Adding arch: sm_20
Adding identifier: mm.cu
## Adding new section PTX
Adding ptx filename: _cuobjdump_2.ptx
Adding arch: sm_20
Adding identifier: mm.cu
Done parsing!!!
GPGPU-Sim PTX: __cudaRegisterFunction _Z14matrix_mul_gpuPiS_S_i : hostFun 0x0x400ce0, fat_cubin_handle = 1
GPGPU-Sim PTX: instruction assembly for function '_Z14matrix_mul_gpuPiS_S_i'...   done.
GPGPU-Sim PTX: finding reconvergence points for '_Z14matrix_mul_gpuPiS_S_i'...
GPGPU-Sim PTX: Finding dominators for '_Z14matrix_mul_gpuPiS_S_i'...
GPGPU-Sim PTX: Finding immediate dominators for '_Z14matrix_mul_gpuPiS_S_i'...
GPGPU-Sim PTX: Finding postdominators for '_Z14matrix_mul_gpuPiS_S_i'...
GPGPU-Sim PTX: Finding immediate postdominators for '_Z14matrix_mul_gpuPiS_S_i'...
GPGPU-Sim PTX: pre-decoding instructions for '_Z14matrix_mul_gpuPiS_S_i'...
GPGPU-Sim PTX: reconvergence points for _Z14matrix_mul_gpuPiS_S_i...
GPGPU-Sim PTX:  1 (potential) branch divergence @  PC=0x048 (_1.ptx:71) @%p1 bra $Lt_0_2306;
GPGPU-Sim PTX:    immediate post dominator      @  PC=0x170 (_1.ptx:114) ld.param.u64 %rd11, [__cudaparm__Z14matrix_mul_gpuPiS_S_i_P];
GPGPU-Sim PTX:  2 (potential) branch divergence @  PC=0x130 (_1.ptx:103) @%p2 bra $Lt_0_1794;
GPGPU-Sim PTX:    immediate post dominator      @  PC=0x138 (_1.ptx:104) bra.uni $Lt_0_1282;
GPGPU-Sim PTX:  3 (potential) branch divergence @  PC=0x138 (_1.ptx:104) bra.uni $Lt_0_1282;
GPGPU-Sim PTX:    immediate post dominator      @  PC=0x170 (_1.ptx:114) ld.param.u64 %rd11, [__cudaparm__Z14matrix_mul_gpuPiS_S_i_P];
GPGPU-Sim PTX: ... end of reconvergence points for _Z14matrix_mul_gpuPiS_S_i
GPGPU-Sim PTX: ... done pre-decoding instructions for '_Z14matrix_mul_gpuPiS_S_i'.
GPGPU-Sim PTX: finished parsing EMBEDDED .ptx file _1.ptx
Adding _cuobjdump_2.ptx with cubin handle 1
GPGPU-Sim PTX: extracting embedded .ptx to temporary file "_ptx_XQvrgS"
Running: cat _ptx_XQvrgS | sed 's/.version 1.5/.version 1.4/' | sed 's/, texmode_independent//' | sed 's/\(\.extern \.const\[1\] .b8 \w\+\)\[\]/\1\[1\]/' | sed 's/const\[.\]/const\[0\]/g' > _ptx2_feB8LY
GPGPU-Sim PTX: generating ptxinfo using "$CUDA_INSTALL_PATH/bin/ptxas --gpu-name=sm_20 -v _ptx2_feB8LY --output-file  /dev/null 2> _ptx_XQvrgSinfo"
GPGPU-Sim PTX: Kernel '_Z14matrix_mul_gpuPiS_S_i' : regs=14, lmem=0, smem=0, cmem=60
GPGPU-Sim PTX: removing ptxinfo using "rm -f _ptx_XQvrgS _ptx2_feB8LY _ptx_XQvrgSinfo"
GPGPU-Sim PTX: loading globals with explicit initializers... 
GPGPU-Sim PTX: finished loading globals (0 bytes total).
GPGPU-Sim PTX: loading constants with explicit initializers...  done.
Block(10,10)   Grid(30,30).

GPGPU-Sim PTX: cudaLaunch for 0x0x400ce0 (mode=performance simulation) on stream 0
GPGPU-Sim PTX: pushing kernel '_Z14matrix_mul_gpuPiS_S_i' to stream 0, gridDim= (30,30,1) blockDim = (10,10,1) 
kernel '_Z14matrix_mul_gpuPiS_S_i' transfer to GPU hardware scheduler
GPGPU-Sim uArch: Shader 32 bind to kernel 1 '_Z14matrix_mul_gpuPiS_S_i'
GPGPU-Sim uArch: CTA/core = 8, limited by: cta_limit
GPGPU-Sim uArch: core: 32, cta: 0 initialized @(1,0)
GPGPU-Sim uArch: Shader 64 bind to kernel 1 '_Z14matrix_mul_gpuPiS_S_i'
GPGPU-Sim uArch: core: 64, cta: 0 initialized @(1,0)
GPGPU-Sim uArch: Shader 96 bind to kernel 1 '_Z14matrix_mul_gpuPiS_S_i'
GPGPU-Sim uArch: core: 96, cta: 0 initialized @(1,0)
GPGPU-Sim uArch: Shader 128 bind to kernel 1 '_Z14matrix_mul_gpuPiS_S_i'
GPGPU-Sim uArch: core:128, cta: 0 initialized @(1,0)
GPGPU-Sim uArch: Shader 160 bind to kernel 1 '_Z14matrix_mul_gpuPiS_S_i'
GPGPU-Sim uArch: core:160, cta: 0 initialized @(1,0)
GPGPU-Sim uArch: Shader 192 bind to kernel 1 '_Z14matrix_mul_gpuPiS_S_i'
GPGPU-Sim uArch: core:192, cta: 0 initialized @(1,0)
GPGPU-Sim uArch: Shader 224 bind to kernel 1 '_Z14matrix_mul_gpuPiS_S_i'
GPGPU-Sim uArch: core:224, cta: 0 initialized @(1,0)
GPGPU-Sim uArch: Shader 256 bind to kernel 1 '_Z14matrix_mul_gpuPiS_S_i'
GPGPU-Sim uArch: core:256, cta: 0 initialized @(1,0)
GPGPU-Sim uArch: Shader 288 bind to kernel 1 '_Z14matrix_mul_gpuPiS_S_i'
GPGPU-Sim uArch: core:288, cta: 0 initialized @(1,0)
GPGPU-Sim uArch: Shader 320 bind to kernel 1 '_Z14matrix_mul_gpuPiS_S_i'
GPGPU-Sim uArch: core:320, cta: 0 initialized @(1,0)
GPGPU-Sim uArch: Shader 352 bind to kernel 1 '_Z14matrix_mul_gpuPiS_S_i'
GPGPU-Sim uArch: core:352, cta: 0 initialized @(1,0)
GPGPU-Sim uArch: Shader 384 bind to kernel 1 '_Z14matrix_mul_gpuPiS_S_i'
GPGPU-Sim uArch: core:384, cta: 0 initialized @(1,0)
GPGPU-Sim uArch: Shader 416 bind to kernel 1 '_Z14matrix_mul_gpuPiS_S_i'
GPGPU-Sim uArch: core:416, cta: 0 initialized @(1,0)
GPGPU-Sim uArch: Shader 448 bind to kernel 1 '_Z14matrix_mul_gpuPiS_S_i'
GPGPU-Sim uArch: core:448, cta: 0 initialized @(1,0)
GPGPU-Sim uArch: Shader 0 bind to kernel 1 '_Z14matrix_mul_gpuPiS_S_i'
GPGPU-Sim uArch: core:  0, cta: 0 initialized @(1,0)
GPGPU-Sim uArch: Shader 33 bind to kernel 1 '_Z14matrix_mul_gpuPiS_S_i'
GPGPU-Sim uArch: core: 33, cta: 0 initialized @(2,0)
GPGPU-Sim uArch: Shader 65 bind to kernel 1 '_Z14matrix_mul_gpuPiS_S_i'
GPGPU-Sim uArch: core: 65, cta: 0 initialized @(2,0)
GPGPU-Sim uArch: Shader 97 bind to kernel 1 '_Z14matrix_mul_gpuPiS_S_i'
GPGPU-Sim uArch: core: 97, cta: 0 initialized @(2,0)
GPGPU-Sim uArch: Shader 129 bind to kernel 1 '_Z14matrix_mul_gpuPiS_S_i'
GPGPU-Sim uArch: core:129, cta: 0 initialized @(2,0)
GPGPU-Sim uArch: Shader 161 bind to kernel 1 '_Z14matrix_mul_gpuPiS_S_i'
GPGPU-Sim uArch: core:161, cta: 0 initialized @(2,0)
GPGPU-Sim uArch: Shader 193 bind to kernel 1 '_Z14matrix_mul_gpuPiS_S_i'
GPGPU-Sim uArch: core:193, cta: 0 initialized @(2,0)
GPGPU-Sim uArch: Shader 225 bind to kernel 1 '_Z14matrix_mul_gpuPiS_S_i'
GPGPU-Sim uArch: core:225, cta: 0 initialized @(2,0)
GPGPU-Sim uArch: Shader 257 bind to kernel 1 '_Z14matrix_mul_gpuPiS_S_i'
GPGPU-Sim uArch: core:257, cta: 0 initialized @(2,0)
GPGPU-Sim uArch: Shader 289 bind to kernel 1 '_Z14matrix_mul_gpuPiS_S_i'
GPGPU-Sim uArch: core:289, cta: 0 initialized @(2,0)
GPGPU-Sim uArch: Shader 321 bind to kernel 1 '_Z14matrix_mul_gpuPiS_S_i'
GPGPU-Sim uArch: core:321, cta: 0 initialized @(2,0)
GPGPU-Sim uArch: Shader 353 bind to kernel 1 '_Z14matrix_mul_gpuPiS_S_i'
GPGPU-Sim uArch: core:353, cta: 0 initialized @(2,0)
GPGPU-Sim uArch: Shader 385 bind to kernel 1 '_Z14matrix_mul_gpuPiS_S_i'
GPGPU-Sim uArch: core:385, cta: 0 initialized @(2,0)
GPGPU-Sim uArch: Shader 417 bind to kernel 1 '_Z14matrix_mul_gpuPiS_S_i'
GPGPU-Sim uArch: core:417, cta: 0 initialized @(2,0)
GPGPU-Sim uArch: Shader 449 bind to kernel 1 '_Z14matrix_mul_gpuPiS_S_i'
GPGPU-Sim uArch: core:449, cta: 0 initialized @(2,0)
GPGPU-Sim uArch: Shader 1 bind to kernel 1 '_Z14matrix_mul_gpuPiS_S_i'
GPGPU-Sim uArch: core:  1, cta: 0 initialized @(2,0)
GPGPU-Sim uArch: Shader 34 bind to kernel 1 '_Z14matrix_mul_gpuPiS_S_i'
GPGPU-Sim uArch: core: 34, cta: 0 initialized @(3,0)
GPGPU-Sim uArch: Shader 66 bind to kernel 1 '_Z14matrix_mul_gpuPiS_S_i'
GPGPU-Sim uArch: core: 66, cta: 0 initialized @(3,0)
GPGPU-Sim uArch: Shader 98 bind to kernel 1 '_Z14matrix_mul_gpuPiS_S_i'
GPGPU-Sim uArch: core: 98, cta: 0 initialized @(3,0)
GPGPU-Sim uArch: Shader 130 bind to kernel 1 '_Z14matrix_mul_gpuPiS_S_i'
GPGPU-Sim uArch: core:130, cta: 0 initialized @(3,0)
GPGPU-Sim uArch: Shader 162 bind to kernel 1 '_Z14matrix_mul_gpuPiS_S_i'
GPGPU-Sim uArch: core:162, cta: 0 initialized @(3,0)
GPGPU-Sim uArch: Shader 194 bind to kernel 1 '_Z14matrix_mul_gpuPiS_S_i'
GPGPU-Sim uArch: core:194, cta: 0 initialized @(3,0)
GPGPU-Sim uArch: Shader 226 bind to kernel 1 '_Z14matrix_mul_gpuPiS_S_i'
GPGPU-Sim uArch: core:226, cta: 0 initialized @(3,0)
GPGPU-Sim uArch: Shader 258 bind to kernel 1 '_Z14matrix_mul_gpuPiS_S_i'
GPGPU-Sim uArch: core:258, cta: 0 initialized @(3,0)
GPGPU-Sim uArch: Shader 290 bind to kernel 1 '_Z14matrix_mul_gpuPiS_S_i'
GPGPU-Sim uArch: core:290, cta: 0 initialized @(3,0)
GPGPU-Sim uArch: Shader 322 bind to kernel 1 '_Z14matrix_mul_gpuPiS_S_i'
GPGPU-Sim uArch: core:322, cta: 0 initialized @(3,0)
GPGPU-Sim uArch: Shader 354 bind to kernel 1 '_Z14matrix_mul_gpuPiS_S_i'
GPGPU-Sim uArch: core:354, cta: 0 initialized @(3,0)
GPGPU-Sim uArch: Shader 386 bind to kernel 1 '_Z14matrix_mul_gpuPiS_S_i'
GPGPU-Sim uArch: core:386, cta: 0 initialized @(3,0)
GPGPU-Sim uArch: Shader 418 bind to kernel 1 '_Z14matrix_mul_gpuPiS_S_i'
GPGPU-Sim uArch: core:418, cta: 0 initialized @(3,0)
GPGPU-Sim uArch: Shader 450 bind to kernel 1 '_Z14matrix_mul_gpuPiS_S_i'
GPGPU-Sim uArch: core:450, cta: 0 initialized @(3,0)
GPGPU-Sim uArch: Shader 2 bind to kernel 1 '_Z14matrix_mul_gpuPiS_S_i'
GPGPU-Sim uArch: core:  2, cta: 0 initialized @(3,0)
GPGPU-Sim uArch: Shader 35 bind to kernel 1 '_Z14matrix_mul_gpuPiS_S_i'
GPGPU-Sim uArch: core: 35, cta: 0 initialized @(4,0)
GPGPU-Sim uArch: Shader 67 bind to kernel 1 '_Z14matrix_mul_gpuPiS_S_i'
GPGPU-Sim uArch: core: 67, cta: 0 initialized @(4,0)
GPGPU-Sim uArch: Shader 99 bind to kernel 1 '_Z14matrix_mul_gpuPiS_S_i'
GPGPU-Sim uArch: core: 99, cta: 0 initialized @(4,0)
GPGPU-Sim uArch: Shader 131 bind to kernel 1 '_Z14matrix_mul_gpuPiS_S_i'
GPGPU-Sim uArch: core:131, cta: 0 initialized @(4,0)
GPGPU-Sim uArch: Shader 163 bind to kernel 1 '_Z14matrix_mul_gpuPiS_S_i'
GPGPU-Sim uArch: core:163, cta: 0 initialized @(4,0)
GPGPU-Sim uArch: Shader 195 bind to kernel 1 '_Z14matrix_mul_gpuPiS_S_i'
GPGPU-Sim uArch: core:195, cta: 0 initialized @(4,0)
GPGPU-Sim uArch: Shader 227 bind to kernel 1 '_Z14matrix_mul_gpuPiS_S_i'
GPGPU-Sim uArch: core:227, cta: 0 initialized @(4,0)
GPGPU-Sim uArch: Shader 259 bind to kernel 1 '_Z14matrix_mul_gpuPiS_S_i'
GPGPU-Sim uArch: core:259, cta: 0 initialized @(4,0)
GPGPU-Sim uArch: Shader 291 bind to kernel 1 '_Z14matrix_mul_gpuPiS_S_i'
GPGPU-Sim uArch: core:291, cta: 0 initialized @(4,0)
GPGPU-Sim uArch: Shader 323 bind to kernel 1 '_Z14matrix_mul_gpuPiS_S_i'
GPGPU-Sim uArch: core:323, cta: 0 initialized @(4,0)
GPGPU-Sim uArch: Shader 355 bind to kernel 1 '_Z14matrix_mul_gpuPiS_S_i'
GPGPU-Sim uArch: core:355, cta: 0 initialized @(4,0)
GPGPU-Sim uArch: Shader 387 bind to kernel 1 '_Z14matrix_mul_gpuPiS_S_i'
GPGPU-Sim uArch: core:387, cta: 0 initialized @(4,0)
GPGPU-Sim uArch: Shader 419 bind to kernel 1 '_Z14matrix_mul_gpuPiS_S_i'
GPGPU-Sim uArch: core:419, cta: 0 initialized @(4,0)
GPGPU-Sim uArch: Shader 451 bind to kernel 1 '_Z14matrix_mul_gpuPiS_S_i'
GPGPU-Sim uArch: core:451, cta: 0 initialized @(4,0)
GPGPU-Sim uArch: Shader 3 bind to kernel 1 '_Z14matrix_mul_gpuPiS_S_i'
GPGPU-Sim uArch: core:  3, cta: 0 initialized @(4,0)
GPGPU-Sim uArch: Shader 36 bind to kernel 1 '_Z14matrix_mul_gpuPiS_S_i'
GPGPU-Sim uArch: core: 36, cta: 0 initialized @(5,0)
GPGPU-Sim uArch: Shader 68 bind to kernel 1 '_Z14matrix_mul_gpuPiS_S_i'
GPGPU-Sim uArch: core: 68, cta: 0 initialized @(5,0)
GPGPU-Sim uArch: Shader 100 bind to kernel 1 '_Z14matrix_mul_gpuPiS_S_i'
GPGPU-Sim uArch: core:100, cta: 0 initialized @(5,0)
GPGPU-Sim uArch: Shader 132 bind to kernel 1 '_Z14matrix_mul_gpuPiS_S_i'
GPGPU-Sim uArch: core:132, cta: 0 initialized @(5,0)
GPGPU-Sim uArch: Shader 164 bind to kernel 1 '_Z14matrix_mul_gpuPiS_S_i'
GPGPU-Sim uArch: core:164, cta: 0 initialized @(5,0)
GPGPU-Sim uArch: Shader 196 bind to kernel 1 '_Z14matrix_mul_gpuPiS_S_i'
GPGPU-Sim uArch: core:196, cta: 0 initialized @(5,0)
GPGPU-Sim uArch: Shader 228 bind to kernel 1 '_Z14matrix_mul_gpuPiS_S_i'
GPGPU-Sim uArch: core:228, cta: 0 initialized @(5,0)
GPGPU-Sim uArch: Shader 260 bind to kernel 1 '_Z14matrix_mul_gpuPiS_S_i'
GPGPU-Sim uArch: core:260, cta: 0 initialized @(5,0)
GPGPU-Sim uArch: Shader 292 bind to kernel 1 '_Z14matrix_mul_gpuPiS_S_i'
GPGPU-Sim uArch: core:292, cta: 0 initialized @(5,0)
GPGPU-Sim uArch: Shader 324 bind to kernel 1 '_Z14matrix_mul_gpuPiS_S_i'
GPGPU-Sim uArch: core:324, cta: 0 initialized @(5,0)
GPGPU-Sim uArch: Shader 356 bind to kernel 1 '_Z14matrix_mul_gpuPiS_S_i'
GPGPU-Sim uArch: core:356, cta: 0 initialized @(5,0)
GPGPU-Sim uArch: Shader 388 bind to kernel 1 '_Z14matrix_mul_gpuPiS_S_i'
GPGPU-Sim uArch: core:388, cta: 0 initialized @(5,0)
GPGPU-Sim uArch: Shader 420 bind to kernel 1 '_Z14matrix_mul_gpuPiS_S_i'
GPGPU-Sim uArch: core:420, cta: 0 initialized @(5,0)
GPGPU-Sim uArch: Shader 452 bind to kernel 1 '_Z14matrix_mul_gpuPiS_S_i'
GPGPU-Sim uArch: core:452, cta: 0 initialized @(5,0)
GPGPU-Sim uArch: Shader 4 bind to kernel 1 '_Z14matrix_mul_gpuPiS_S_i'
GPGPU-Sim uArch: core:  4, cta: 0 initialized @(5,0)
GPGPU-Sim uArch: Shader 37 bind to kernel 1 '_Z14matrix_mul_gpuPiS_S_i'
GPGPU-Sim uArch: core: 37, cta: 0 initialized @(6,0)
GPGPU-Sim uArch: Shader 69 bind to kernel 1 '_Z14matrix_mul_gpuPiS_S_i'
GPGPU-Sim uArch: core: 69, cta: 0 initialized @(6,0)
GPGPU-Sim uArch: Shader 101 bind to kernel 1 '_Z14matrix_mul_gpuPiS_S_i'
GPGPU-Sim uArch: core:101, cta: 0 initialized @(6,0)
GPGPU-Sim uArch: Shader 133 bind to kernel 1 '_Z14matrix_mul_gpuPiS_S_i'
GPGPU-Sim uArch: core:133, cta: 0 initialized @(6,0)
GPGPU-Sim uArch: Shader 165 bind to kernel 1 '_Z14matrix_mul_gpuPiS_S_i'
GPGPU-Sim uArch: core:165, cta: 0 initialized @(6,0)
GPGPU-Sim uArch: Shader 197 bind to kernel 1 '_Z14matrix_mul_gpuPiS_S_i'
GPGPU-Sim uArch: core:197, cta: 0 initialized @(6,0)
GPGPU-Sim uArch: Shader 229 bind to kernel 1 '_Z14matrix_mul_gpuPiS_S_i'
GPGPU-Sim uArch: core:229, cta: 0 initialized @(6,0)
GPGPU-Sim uArch: Shader 261 bind to kernel 1 '_Z14matrix_mul_gpuPiS_S_i'
GPGPU-Sim uArch: core:261, cta: 0 initialized @(6,0)
GPGPU-Sim uArch: Shader 293 bind to kernel 1 '_Z14matrix_mul_gpuPiS_S_i'
GPGPU-Sim uArch: core:293, cta: 0 initialized @(6,0)
GPGPU-Sim uArch: Shader 325 bind to kernel 1 '_Z14matrix_mul_gpuPiS_S_i'
GPGPU-Sim uArch: core:325, cta: 0 initialized @(6,0)
GPGPU-Sim uArch: Shader 357 bind to kernel 1 '_Z14matrix_mul_gpuPiS_S_i'
GPGPU-Sim uArch: core:357, cta: 0 initialized @(6,0)
GPGPU-Sim uArch: Shader 389 bind to kernel 1 '_Z14matrix_mul_gpuPiS_S_i'
GPGPU-Sim uArch: core:389, cta: 0 initialized @(6,0)
GPGPU-Sim uArch: Shader 421 bind to kernel 1 '_Z14matrix_mul_gpuPiS_S_i'
GPGPU-Sim uArch: core:421, cta: 0 initialized @(6,0)
GPGPU-Sim uArch: Shader 453 bind to kernel 1 '_Z14matrix_mul_gpuPiS_S_i'
GPGPU-Sim uArch: core:453, cta: 0 initialized @(6,0)
GPGPU-Sim uArch: Shader 5 bind to kernel 1 '_Z14matrix_mul_gpuPiS_S_i'
GPGPU-Sim uArch: core:  5, cta: 0 initialized @(6,0)
GPGPU-Sim uArch: Shader 38 bind to kernel 1 '_Z14matrix_mul_gpuPiS_S_i'
GPGPU-Sim uArch: core: 38, cta: 0 initialized @(7,0)
GPGPU-Sim uArch: Shader 70 bind to kernel 1 '_Z14matrix_mul_gpuPiS_S_i'
GPGPU-Sim uArch: core: 70, cta: 0 initialized @(7,0)
GPGPU-Sim uArch: Shader 102 bind to kernel 1 '_Z14matrix_mul_gpuPiS_S_i'
GPGPU-Sim uArch: core:102, cta: 0 initialized @(7,0)
GPGPU-Sim uArch: Shader 134 bind to kernel 1 '_Z14matrix_mul_gpuPiS_S_i'
GPGPU-Sim uArch: core:134, cta: 0 initialized @(7,0)
GPGPU-Sim uArch: Shader 166 bind to kernel 1 '_Z14matrix_mul_gpuPiS_S_i'
GPGPU-Sim uArch: core:166, cta: 0 initialized @(7,0)
GPGPU-Sim uArch: Shader 198 bind to kernel 1 '_Z14matrix_mul_gpuPiS_S_i'
GPGPU-Sim uArch: core:198, cta: 0 initialized @(7,0)
GPGPU-Sim uArch: Shader 230 bind to kernel 1 '_Z14matrix_mul_gpuPiS_S_i'
GPGPU-Sim uArch: core:230, cta: 0 initialized @(7,0)
GPGPU-Sim uArch: Shader 262 bind to kernel 1 '_Z14matrix_mul_gpuPiS_S_i'
GPGPU-Sim uArch: core:262, cta: 0 initialized @(7,0)
GPGPU-Sim uArch: Shader 294 bind to kernel 1 '_Z14matrix_mul_gpuPiS_S_i'
GPGPU-Sim uArch: core:294, cta: 0 initialized @(7,0)
GPGPU-Sim uArch: Shader 326 bind to kernel 1 '_Z14matrix_mul_gpuPiS_S_i'
GPGPU-Sim uArch: core:326, cta: 0 initialized @(7,0)
GPGPU-Sim uArch: Shader 358 bind to kernel 1 '_Z14matrix_mul_gpuPiS_S_i'
GPGPU-Sim uArch: core:358, cta: 0 initialized @(7,0)
GPGPU-Sim uArch: Shader 390 bind to kernel 1 '_Z14matrix_mul_gpuPiS_S_i'
GPGPU-Sim uArch: core:390, cta: 0 initialized @(7,0)
GPGPU-Sim uArch: Shader 422 bind to kernel 1 '_Z14matrix_mul_gpuPiS_S_i'
GPGPU-Sim uArch: core:422, cta: 0 initialized @(7,0)
GPGPU-Sim uArch: Shader 454 bind to kernel 1 '_Z14matrix_mul_gpuPiS_S_i'
GPGPU-Sim uArch: core:454, cta: 0 initialized @(7,0)
GPGPU-Sim uArch: Shader 6 bind to kernel 1 '_Z14matrix_mul_gpuPiS_S_i'
GPGPU-Sim uArch: core:  6, cta: 0 initialized @(7,0)
GPGPU-Sim uArch: Shader 39 bind to kernel 1 '_Z14matrix_mul_gpuPiS_S_i'
GPGPU-Sim uArch: core: 39, cta: 0 initialized @(8,0)
GPGPU-Sim uArch: Shader 71 bind to kernel 1 '_Z14matrix_mul_gpuPiS_S_i'
GPGPU-Sim uArch: core: 71, cta: 0 initialized @(8,0)
GPGPU-Sim uArch: Shader 103 bind to kernel 1 '_Z14matrix_mul_gpuPiS_S_i'
GPGPU-Sim uArch: core:103, cta: 0 initialized @(8,0)
GPGPU-Sim uArch: Shader 135 bind to kernel 1 '_Z14matrix_mul_gpuPiS_S_i'
GPGPU-Sim uArch: core:135, cta: 0 initialized @(8,0)
GPGPU-Sim uArch: Shader 167 bind to kernel 1 '_Z14matrix_mul_gpuPiS_S_i'
GPGPU-Sim uArch: core:167, cta: 0 initialized @(8,0)
GPGPU-Sim uArch: Shader 199 bind to kernel 1 '_Z14matrix_mul_gpuPiS_S_i'
GPGPU-Sim uArch: core:199, cta: 0 initialized @(8,0)
GPGPU-Sim uArch: Shader 231 bind to kernel 1 '_Z14matrix_mul_gpuPiS_S_i'
GPGPU-Sim uArch: core:231, cta: 0 initialized @(8,0)
GPGPU-Sim uArch: Shader 263 bind to kernel 1 '_Z14matrix_mul_gpuPiS_S_i'
GPGPU-Sim uArch: core:263, cta: 0 initialized @(8,0)
GPGPU-Sim uArch: Shader 295 bind to kernel 1 '_Z14matrix_mul_gpuPiS_S_i'
GPGPU-Sim uArch: core:295, cta: 0 initialized @(8,0)
GPGPU-Sim uArch: Shader 327 bind to kernel 1 '_Z14matrix_mul_gpuPiS_S_i'
GPGPU-Sim uArch: core:327, cta: 0 initialized @(8,0)
GPGPU-Sim uArch: Shader 359 bind to kernel 1 '_Z14matrix_mul_gpuPiS_S_i'
GPGPU-Sim uArch: core:359, cta: 0 initialized @(8,0)
GPGPU-Sim uArch: Shader 391 bind to kernel 1 '_Z14matrix_mul_gpuPiS_S_i'
GPGPU-Sim uArch: core:391, cta: 0 initialized @(8,0)
GPGPU-Sim uArch: Shader 423 bind to kernel 1 '_Z14matrix_mul_gpuPiS_S_i'
GPGPU-Sim uArch: core:423, cta: 0 initialized @(8,0)
GPGPU-Sim uArch: Shader 455 bind to kernel 1 '_Z14matrix_mul_gpuPiS_S_i'
GPGPU-Sim uArch: core:455, cta: 0 initialized @(8,0)
GPGPU-Sim uArch: Shader 7 bind to kernel 1 '_Z14matrix_mul_gpuPiS_S_i'
GPGPU-Sim uArch: core:  7, cta: 0 initialized @(8,0)
GPGPU-Sim uArch: Shader 40 bind to kernel 1 '_Z14matrix_mul_gpuPiS_S_i'
GPGPU-Sim uArch: core: 40, cta: 0 initialized @(9,0)
GPGPU-Sim uArch: Shader 72 bind to kernel 1 '_Z14matrix_mul_gpuPiS_S_i'
GPGPU-Sim uArch: core: 72, cta: 0 initialized @(9,0)
GPGPU-Sim uArch: Shader 104 bind to kernel 1 '_Z14matrix_mul_gpuPiS_S_i'
GPGPU-Sim uArch: core:104, cta: 0 initialized @(9,0)
GPGPU-Sim uArch: Shader 136 bind to kernel 1 '_Z14matrix_mul_gpuPiS_S_i'
GPGPU-Sim uArch: core:136, cta: 0 initialized @(9,0)
GPGPU-Sim uArch: Shader 168 bind to kernel 1 '_Z14matrix_mul_gpuPiS_S_i'
GPGPU-Sim uArch: core:168, cta: 0 initialized @(9,0)
GPGPU-Sim uArch: Shader 200 bind to kernel 1 '_Z14matrix_mul_gpuPiS_S_i'
GPGPU-Sim uArch: core:200, cta: 0 initialized @(9,0)
GPGPU-Sim uArch: Shader 232 bind to kernel 1 '_Z14matrix_mul_gpuPiS_S_i'
GPGPU-Sim uArch: core:232, cta: 0 initialized @(9,0)
GPGPU-Sim uArch: Shader 264 bind to kernel 1 '_Z14matrix_mul_gpuPiS_S_i'
GPGPU-Sim uArch: core:264, cta: 0 initialized @(9,0)
GPGPU-Sim uArch: Shader 296 bind to kernel 1 '_Z14matrix_mul_gpuPiS_S_i'
GPGPU-Sim uArch: core:296, cta: 0 initialized @(9,0)
GPGPU-Sim uArch: Shader 328 bind to kernel 1 '_Z14matrix_mul_gpuPiS_S_i'
GPGPU-Sim uArch: core:328, cta: 0 initialized @(9,0)
GPGPU-Sim uArch: Shader 360 bind to kernel 1 '_Z14matrix_mul_gpuPiS_S_i'
GPGPU-Sim uArch: core:360, cta: 0 initialized @(9,0)
GPGPU-Sim uArch: Shader 392 bind to kernel 1 '_Z14matrix_mul_gpuPiS_S_i'
GPGPU-Sim uArch: core:392, cta: 0 initialized @(9,0)
GPGPU-Sim uArch: Shader 424 bind to kernel 1 '_Z14matrix_mul_gpuPiS_S_i'
GPGPU-Sim uArch: core:424, cta: 0 initialized @(9,0)
GPGPU-Sim uArch: Shader 456 bind to kernel 1 '_Z14matrix_mul_gpuPiS_S_i'
GPGPU-Sim uArch: core:456, cta: 0 initialized @(9,0)
GPGPU-Sim uArch: Shader 8 bind to kernel 1 '_Z14matrix_mul_gpuPiS_S_i'
GPGPU-Sim uArch: core:  8, cta: 0 initialized @(9,0)
GPGPU-Sim uArch: Shader 41 bind to kernel 1 '_Z14matrix_mul_gpuPiS_S_i'
GPGPU-Sim uArch: core: 41, cta: 0 initialized @(10,0)
GPGPU-Sim uArch: Shader 73 bind to kernel 1 '_Z14matrix_mul_gpuPiS_S_i'
GPGPU-Sim uArch: core: 73, cta: 0 initialized @(10,0)
GPGPU-Sim uArch: Shader 105 bind to kernel 1 '_Z14matrix_mul_gpuPiS_S_i'
GPGPU-Sim uArch: core:105, cta: 0 initialized @(10,0)
GPGPU-Sim uArch: Shader 137 bind to kernel 1 '_Z14matrix_mul_gpuPiS_S_i'
GPGPU-Sim uArch: core:137, cta: 0 initialized @(10,0)
GPGPU-Sim uArch: Shader 169 bind to kernel 1 '_Z14matrix_mul_gpuPiS_S_i'
GPGPU-Sim uArch: core:169, cta: 0 initialized @(10,0)
GPGPU-Sim uArch: Shader 201 bind to kernel 1 '_Z14matrix_mul_gpuPiS_S_i'
GPGPU-Sim uArch: core:201, cta: 0 initialized @(10,0)
GPGPU-Sim uArch: Shader 233 bind to kernel 1 '_Z14matrix_mul_gpuPiS_S_i'
GPGPU-Sim uArch: core:233, cta: 0 initialized @(10,0)
GPGPU-Sim uArch: Shader 265 bind to kernel 1 '_Z14matrix_mul_gpuPiS_S_i'
GPGPU-Sim uArch: core:265, cta: 0 initialized @(10,0)
GPGPU-Sim uArch: Shader 297 bind to kernel 1 '_Z14matrix_mul_gpuPiS_S_i'
GPGPU-Sim uArch: core:297, cta: 0 initialized @(10,0)
GPGPU-Sim uArch: Shader 329 bind to kernel 1 '_Z14matrix_mul_gpuPiS_S_i'
GPGPU-Sim uArch: core:329, cta: 0 initialized @(10,0)
GPGPU-Sim uArch: Shader 361 bind to kernel 1 '_Z14matrix_mul_gpuPiS_S_i'
GPGPU-Sim uArch: core:361, cta: 0 initialized @(10,0)
GPGPU-Sim uArch: Shader 393 bind to kernel 1 '_Z14matrix_mul_gpuPiS_S_i'
GPGPU-Sim uArch: core:393, cta: 0 initialized @(10,0)
GPGPU-Sim uArch: Shader 425 bind to kernel 1 '_Z14matrix_mul_gpuPiS_S_i'
GPGPU-Sim uArch: core:425, cta: 0 initialized @(10,0)
GPGPU-Sim uArch: Shader 457 bind to kernel 1 '_Z14matrix_mul_gpuPiS_S_i'
GPGPU-Sim uArch: core:457, cta: 0 initialized @(10,0)
GPGPU-Sim uArch: Shader 9 bind to kernel 1 '_Z14matrix_mul_gpuPiS_S_i'
GPGPU-Sim uArch: core:  9, cta: 0 initialized @(10,0)
GPGPU-Sim uArch: Shader 42 bind to kernel 1 '_Z14matrix_mul_gpuPiS_S_i'
GPGPU-Sim uArch: core: 42, cta: 0 initialized @(11,0)
GPGPU-Sim uArch: Shader 74 bind to kernel 1 '_Z14matrix_mul_gpuPiS_S_i'
GPGPU-Sim uArch: core: 74, cta: 0 initialized @(11,0)
GPGPU-Sim uArch: Shader 106 bind to kernel 1 '_Z14matrix_mul_gpuPiS_S_i'
GPGPU-Sim uArch: core:106, cta: 0 initialized @(11,0)
GPGPU-Sim uArch: Shader 138 bind to kernel 1 '_Z14matrix_mul_gpuPiS_S_i'
GPGPU-Sim uArch: core:138, cta: 0 initialized @(11,0)
GPGPU-Sim uArch: Shader 170 bind to kernel 1 '_Z14matrix_mul_gpuPiS_S_i'
GPGPU-Sim uArch: core:170, cta: 0 initialized @(11,0)
GPGPU-Sim uArch: Shader 202 bind to kernel 1 '_Z14matrix_mul_gpuPiS_S_i'
GPGPU-Sim uArch: core:202, cta: 0 initialized @(11,0)
GPGPU-Sim uArch: Shader 234 bind to kernel 1 '_Z14matrix_mul_gpuPiS_S_i'
GPGPU-Sim uArch: core:234, cta: 0 initialized @(11,0)
GPGPU-Sim uArch: Shader 266 bind to kernel 1 '_Z14matrix_mul_gpuPiS_S_i'
GPGPU-Sim uArch: core:266, cta: 0 initialized @(11,0)
GPGPU-Sim uArch: Shader 298 bind to kernel 1 '_Z14matrix_mul_gpuPiS_S_i'
GPGPU-Sim uArch: core:298, cta: 0 initialized @(11,0)
GPGPU-Sim uArch: Shader 330 bind to kernel 1 '_Z14matrix_mul_gpuPiS_S_i'
GPGPU-Sim uArch: core:330, cta: 0 initialized @(11,0)
GPGPU-Sim uArch: Shader 362 bind to kernel 1 '_Z14matrix_mul_gpuPiS_S_i'
GPGPU-Sim uArch: core:362, cta: 0 initialized @(11,0)
GPGPU-Sim uArch: Shader 394 bind to kernel 1 '_Z14matrix_mul_gpuPiS_S_i'
GPGPU-Sim uArch: core:394, cta: 0 initialized @(11,0)
GPGPU-Sim uArch: Shader 426 bind to kernel 1 '_Z14matrix_mul_gpuPiS_S_i'
GPGPU-Sim uArch: core:426, cta: 0 initialized @(11,0)
GPGPU-Sim uArch: Shader 458 bind to kernel 1 '_Z14matrix_mul_gpuPiS_S_i'
GPGPU-Sim uArch: core:458, cta: 0 initialized @(11,0)
GPGPU-Sim uArch: Shader 10 bind to kernel 1 '_Z14matrix_mul_gpuPiS_S_i'
GPGPU-Sim uArch: core: 10, cta: 0 initialized @(11,0)
GPGPU-Sim uArch: Shader 43 bind to kernel 1 '_Z14matrix_mul_gpuPiS_S_i'
GPGPU-Sim uArch: core: 43, cta: 0 initialized @(12,0)
GPGPU-Sim uArch: Shader 75 bind to kernel 1 '_Z14matrix_mul_gpuPiS_S_i'
GPGPU-Sim uArch: core: 75, cta: 0 initialized @(12,0)
GPGPU-Sim uArch: Shader 107 bind to kernel 1 '_Z14matrix_mul_gpuPiS_S_i'
GPGPU-Sim uArch: core:107, cta: 0 initialized @(12,0)
GPGPU-Sim uArch: Shader 139 bind to kernel 1 '_Z14matrix_mul_gpuPiS_S_i'
GPGPU-Sim uArch: core:139, cta: 0 initialized @(12,0)
GPGPU-Sim uArch: Shader 171 bind to kernel 1 '_Z14matrix_mul_gpuPiS_S_i'
GPGPU-Sim uArch: core:171, cta: 0 initialized @(12,0)
GPGPU-Sim uArch: Shader 203 bind to kernel 1 '_Z14matrix_mul_gpuPiS_S_i'
GPGPU-Sim uArch: core:203, cta: 0 initialized @(12,0)
GPGPU-Sim uArch: Shader 235 bind to kernel 1 '_Z14matrix_mul_gpuPiS_S_i'
GPGPU-Sim uArch: core:235, cta: 0 initialized @(12,0)
GPGPU-Sim uArch: Shader 267 bind to kernel 1 '_Z14matrix_mul_gpuPiS_S_i'
GPGPU-Sim uArch: core:267, cta: 0 initialized @(12,0)
GPGPU-Sim uArch: Shader 299 bind to kernel 1 '_Z14matrix_mul_gpuPiS_S_i'
GPGPU-Sim uArch: core:299, cta: 0 initialized @(12,0)
GPGPU-Sim uArch: Shader 331 bind to kernel 1 '_Z14matrix_mul_gpuPiS_S_i'
GPGPU-Sim uArch: core:331, cta: 0 initialized @(12,0)
GPGPU-Sim uArch: Shader 363 bind to kernel 1 '_Z14matrix_mul_gpuPiS_S_i'
GPGPU-Sim uArch: core:363, cta: 0 initialized @(12,0)
GPGPU-Sim uArch: Shader 395 bind to kernel 1 '_Z14matrix_mul_gpuPiS_S_i'
GPGPU-Sim uArch: core:395, cta: 0 initialized @(12,0)
GPGPU-Sim uArch: Shader 427 bind to kernel 1 '_Z14matrix_mul_gpuPiS_S_i'
GPGPU-Sim uArch: core:427, cta: 0 initialized @(12,0)
GPGPU-Sim uArch: Shader 459 bind to kernel 1 '_Z14matrix_mul_gpuPiS_S_i'
GPGPU-Sim uArch: core:459, cta: 0 initialized @(12,0)
GPGPU-Sim uArch: Shader 11 bind to kernel 1 '_Z14matrix_mul_gpuPiS_S_i'
GPGPU-Sim uArch: core: 11, cta: 0 initialized @(12,0)
GPGPU-Sim uArch: Shader 44 bind to kernel 1 '_Z14matrix_mul_gpuPiS_S_i'
GPGPU-Sim uArch: core: 44, cta: 0 initialized @(13,0)
GPGPU-Sim uArch: Shader 76 bind to kernel 1 '_Z14matrix_mul_gpuPiS_S_i'
GPGPU-Sim uArch: core: 76, cta: 0 initialized @(13,0)
GPGPU-Sim uArch: Shader 108 bind to kernel 1 '_Z14matrix_mul_gpuPiS_S_i'
GPGPU-Sim uArch: core:108, cta: 0 initialized @(13,0)
GPGPU-Sim uArch: Shader 140 bind to kernel 1 '_Z14matrix_mul_gpuPiS_S_i'
GPGPU-Sim uArch: core:140, cta: 0 initialized @(13,0)
GPGPU-Sim uArch: Shader 172 bind to kernel 1 '_Z14matrix_mul_gpuPiS_S_i'
GPGPU-Sim uArch: core:172, cta: 0 initialized @(13,0)
GPGPU-Sim uArch: Shader 204 bind to kernel 1 '_Z14matrix_mul_gpuPiS_S_i'
GPGPU-Sim uArch: core:204, cta: 0 initialized @(13,0)
GPGPU-Sim uArch: Shader 236 bind to kernel 1 '_Z14matrix_mul_gpuPiS_S_i'
GPGPU-Sim uArch: core:236, cta: 0 initialized @(13,0)
GPGPU-Sim uArch: Shader 268 bind to kernel 1 '_Z14matrix_mul_gpuPiS_S_i'
GPGPU-Sim uArch: core:268, cta: 0 initialized @(13,0)
GPGPU-Sim uArch: Shader 300 bind to kernel 1 '_Z14matrix_mul_gpuPiS_S_i'
GPGPU-Sim uArch: core:300, cta: 0 initialized @(13,0)
GPGPU-Sim uArch: Shader 332 bind to kernel 1 '_Z14matrix_mul_gpuPiS_S_i'
GPGPU-Sim uArch: core:332, cta: 0 initialized @(13,0)
GPGPU-Sim uArch: Shader 364 bind to kernel 1 '_Z14matrix_mul_gpuPiS_S_i'
GPGPU-Sim uArch: core:364, cta: 0 initialized @(13,0)
GPGPU-Sim uArch: Shader 396 bind to kernel 1 '_Z14matrix_mul_gpuPiS_S_i'
GPGPU-Sim uArch: core:396, cta: 0 initialized @(13,0)
GPGPU-Sim uArch: Shader 428 bind to kernel 1 '_Z14matrix_mul_gpuPiS_S_i'
GPGPU-Sim uArch: core:428, cta: 0 initialized @(13,0)
GPGPU-Sim uArch: Shader 460 bind to kernel 1 '_Z14matrix_mul_gpuPiS_S_i'
GPGPU-Sim uArch: core:460, cta: 0 initialized @(13,0)
GPGPU-Sim uArch: Shader 12 bind to kernel 1 '_Z14matrix_mul_gpuPiS_S_i'
GPGPU-Sim uArch: core: 12, cta: 0 initialized @(13,0)
GPGPU-Sim uArch: Shader 45 bind to kernel 1 '_Z14matrix_mul_gpuPiS_S_i'
GPGPU-Sim uArch: core: 45, cta: 0 initialized @(14,0)
GPGPU-Sim uArch: Shader 77 bind to kernel 1 '_Z14matrix_mul_gpuPiS_S_i'
GPGPU-Sim uArch: core: 77, cta: 0 initialized @(14,0)
GPGPU-Sim uArch: Shader 109 bind to kernel 1 '_Z14matrix_mul_gpuPiS_S_i'
GPGPU-Sim uArch: core:109, cta: 0 initialized @(14,0)
GPGPU-Sim uArch: Shader 141 bind to kernel 1 '_Z14matrix_mul_gpuPiS_S_i'
GPGPU-Sim uArch: core:141, cta: 0 initialized @(14,0)
GPGPU-Sim uArch: Shader 173 bind to kernel 1 '_Z14matrix_mul_gpuPiS_S_i'
GPGPU-Sim uArch: core:173, cta: 0 initialized @(14,0)
GPGPU-Sim uArch: Shader 205 bind to kernel 1 '_Z14matrix_mul_gpuPiS_S_i'
GPGPU-Sim uArch: core:205, cta: 0 initialized @(14,0)
GPGPU-Sim uArch: Shader 237 bind to kernel 1 '_Z14matrix_mul_gpuPiS_S_i'
GPGPU-Sim uArch: core:237, cta: 0 initialized @(14,0)
GPGPU-Sim uArch: Shader 269 bind to kernel 1 '_Z14matrix_mul_gpuPiS_S_i'
GPGPU-Sim uArch: core:269, cta: 0 initialized @(14,0)
GPGPU-Sim uArch: Shader 301 bind to kernel 1 '_Z14matrix_mul_gpuPiS_S_i'
GPGPU-Sim uArch: core:301, cta: 0 initialized @(14,0)
GPGPU-Sim uArch: Shader 333 bind to kernel 1 '_Z14matrix_mul_gpuPiS_S_i'
GPGPU-Sim uArch: core:333, cta: 0 initialized @(14,0)
GPGPU-Sim uArch: Shader 365 bind to kernel 1 '_Z14matrix_mul_gpuPiS_S_i'
GPGPU-Sim uArch: core:365, cta: 0 initialized @(14,0)
GPGPU-Sim uArch: Shader 397 bind to kernel 1 '_Z14matrix_mul_gpuPiS_S_i'
GPGPU-Sim uArch: core:397, cta: 0 initialized @(14,0)
GPGPU-Sim uArch: Shader 429 bind to kernel 1 '_Z14matrix_mul_gpuPiS_S_i'
GPGPU-Sim uArch: core:429, cta: 0 initialized @(14,0)
GPGPU-Sim uArch: Shader 461 bind to kernel 1 '_Z14matrix_mul_gpuPiS_S_i'
GPGPU-Sim uArch: core:461, cta: 0 initialized @(14,0)
GPGPU-Sim uArch: Shader 13 bind to kernel 1 '_Z14matrix_mul_gpuPiS_S_i'
GPGPU-Sim uArch: core: 13, cta: 0 initialized @(14,0)
GPGPU-Sim uArch: Shader 46 bind to kernel 1 '_Z14matrix_mul_gpuPiS_S_i'
GPGPU-Sim uArch: core: 46, cta: 0 initialized @(15,0)
GPGPU-Sim uArch: Shader 78 bind to kernel 1 '_Z14matrix_mul_gpuPiS_S_i'
GPGPU-Sim uArch: core: 78, cta: 0 initialized @(15,0)
GPGPU-Sim uArch: Shader 110 bind to kernel 1 '_Z14matrix_mul_gpuPiS_S_i'
GPGPU-Sim uArch: core:110, cta: 0 initialized @(15,0)
GPGPU-Sim uArch: Shader 142 bind to kernel 1 '_Z14matrix_mul_gpuPiS_S_i'
GPGPU-Sim uArch: core:142, cta: 0 initialized @(15,0)
GPGPU-Sim uArch: Shader 174 bind to kernel 1 '_Z14matrix_mul_gpuPiS_S_i'
GPGPU-Sim uArch: core:174, cta: 0 initialized @(15,0)
GPGPU-Sim uArch: Shader 206 bind to kernel 1 '_Z14matrix_mul_gpuPiS_S_i'
GPGPU-Sim uArch: core:206, cta: 0 initialized @(15,0)
GPGPU-Sim uArch: Shader 238 bind to kernel 1 '_Z14matrix_mul_gpuPiS_S_i'
GPGPU-Sim uArch: core:238, cta: 0 initialized @(15,0)
GPGPU-Sim uArch: Shader 270 bind to kernel 1 '_Z14matrix_mul_gpuPiS_S_i'
GPGPU-Sim uArch: core:270, cta: 0 initialized @(15,0)
GPGPU-Sim uArch: Shader 302 bind to kernel 1 '_Z14matrix_mul_gpuPiS_S_i'
GPGPU-Sim uArch: core:302, cta: 0 initialized @(15,0)
GPGPU-Sim uArch: Shader 334 bind to kernel 1 '_Z14matrix_mul_gpuPiS_S_i'
GPGPU-Sim uArch: core:334, cta: 0 initialized @(15,0)
GPGPU-Sim uArch: Shader 366 bind to kernel 1 '_Z14matrix_mul_gpuPiS_S_i'
GPGPU-Sim uArch: core:366, cta: 0 initialized @(15,0)
GPGPU-Sim uArch: Shader 398 bind to kernel 1 '_Z14matrix_mul_gpuPiS_S_i'
GPGPU-Sim uArch: core:398, cta: 0 initialized @(15,0)
GPGPU-Sim uArch: Shader 430 bind to kernel 1 '_Z14matrix_mul_gpuPiS_S_i'
GPGPU-Sim uArch: core:430, cta: 0 initialized @(15,0)
GPGPU-Sim uArch: Shader 462 bind to kernel 1 '_Z14matrix_mul_gpuPiS_S_i'
GPGPU-Sim uArch: core:462, cta: 0 initialized @(15,0)
GPGPU-Sim uArch: Shader 14 bind to kernel 1 '_Z14matrix_mul_gpuPiS_S_i'
GPGPU-Sim uArch: core: 14, cta: 0 initialized @(15,0)
GPGPU-Sim uArch: Shader 47 bind to kernel 1 '_Z14matrix_mul_gpuPiS_S_i'
GPGPU-Sim uArch: core: 47, cta: 0 initialized @(16,0)
GPGPU-Sim uArch: Shader 79 bind to kernel 1 '_Z14matrix_mul_gpuPiS_S_i'
GPGPU-Sim uArch: core: 79, cta: 0 initialized @(16,0)
GPGPU-Sim uArch: Shader 111 bind to kernel 1 '_Z14matrix_mul_gpuPiS_S_i'
GPGPU-Sim uArch: core:111, cta: 0 initialized @(16,0)
GPGPU-Sim uArch: Shader 143 bind to kernel 1 '_Z14matrix_mul_gpuPiS_S_i'
GPGPU-Sim uArch: core:143, cta: 0 initialized @(16,0)
GPGPU-Sim uArch: Shader 175 bind to kernel 1 '_Z14matrix_mul_gpuPiS_S_i'
GPGPU-Sim uArch: core:175, cta: 0 initialized @(16,0)
GPGPU-Sim uArch: Shader 207 bind to kernel 1 '_Z14matrix_mul_gpuPiS_S_i'
GPGPU-Sim uArch: core:207, cta: 0 initialized @(16,0)
GPGPU-Sim uArch: Shader 239 bind to kernel 1 '_Z14matrix_mul_gpuPiS_S_i'
GPGPU-Sim uArch: core:239, cta: 0 initialized @(16,0)
GPGPU-Sim uArch: Shader 271 bind to kernel 1 '_Z14matrix_mul_gpuPiS_S_i'
GPGPU-Sim uArch: core:271, cta: 0 initialized @(16,0)
GPGPU-Sim uArch: Shader 303 bind to kernel 1 '_Z14matrix_mul_gpuPiS_S_i'
GPGPU-Sim uArch: core:303, cta: 0 initialized @(16,0)
GPGPU-Sim uArch: Shader 335 bind to kernel 1 '_Z14matrix_mul_gpuPiS_S_i'
GPGPU-Sim uArch: core:335, cta: 0 initialized @(16,0)
GPGPU-Sim uArch: Shader 367 bind to kernel 1 '_Z14matrix_mul_gpuPiS_S_i'
GPGPU-Sim uArch: core:367, cta: 0 initialized @(16,0)
GPGPU-Sim uArch: Shader 399 bind to kernel 1 '_Z14matrix_mul_gpuPiS_S_i'
GPGPU-Sim uArch: core:399, cta: 0 initialized @(16,0)
GPGPU-Sim uArch: Shader 431 bind to kernel 1 '_Z14matrix_mul_gpuPiS_S_i'
GPGPU-Sim uArch: core:431, cta: 0 initialized @(16,0)
GPGPU-Sim uArch: Shader 463 bind to kernel 1 '_Z14matrix_mul_gpuPiS_S_i'
GPGPU-Sim uArch: core:463, cta: 0 initialized @(16,0)
GPGPU-Sim uArch: Shader 15 bind to kernel 1 '_Z14matrix_mul_gpuPiS_S_i'
GPGPU-Sim uArch: core: 15, cta: 0 initialized @(16,0)
GPGPU-Sim uArch: Shader 48 bind to kernel 1 '_Z14matrix_mul_gpuPiS_S_i'
GPGPU-Sim uArch: core: 48, cta: 0 initialized @(17,0)
GPGPU-Sim uArch: Shader 80 bind to kernel 1 '_Z14matrix_mul_gpuPiS_S_i'
GPGPU-Sim uArch: core: 80, cta: 0 initialized @(17,0)
GPGPU-Sim uArch: Shader 112 bind to kernel 1 '_Z14matrix_mul_gpuPiS_S_i'
GPGPU-Sim uArch: core:112, cta: 0 initialized @(17,0)
GPGPU-Sim uArch: Shader 144 bind to kernel 1 '_Z14matrix_mul_gpuPiS_S_i'
GPGPU-Sim uArch: core:144, cta: 0 initialized @(17,0)
GPGPU-Sim uArch: Shader 176 bind to kernel 1 '_Z14matrix_mul_gpuPiS_S_i'
GPGPU-Sim uArch: core:176, cta: 0 initialized @(17,0)
GPGPU-Sim uArch: Shader 208 bind to kernel 1 '_Z14matrix_mul_gpuPiS_S_i'
GPGPU-Sim uArch: core:208, cta: 0 initialized @(17,0)
GPGPU-Sim uArch: Shader 240 bind to kernel 1 '_Z14matrix_mul_gpuPiS_S_i'
GPGPU-Sim uArch: core:240, cta: 0 initialized @(17,0)
GPGPU-Sim uArch: Shader 272 bind to kernel 1 '_Z14matrix_mul_gpuPiS_S_i'
GPGPU-Sim uArch: core:272, cta: 0 initialized @(17,0)
GPGPU-Sim uArch: Shader 304 bind to kernel 1 '_Z14matrix_mul_gpuPiS_S_i'
GPGPU-Sim uArch: core:304, cta: 0 initialized @(17,0)
GPGPU-Sim uArch: Shader 336 bind to kernel 1 '_Z14matrix_mul_gpuPiS_S_i'
GPGPU-Sim uArch: core:336, cta: 0 initialized @(17,0)
GPGPU-Sim uArch: Shader 368 bind to kernel 1 '_Z14matrix_mul_gpuPiS_S_i'
GPGPU-Sim uArch: core:368, cta: 0 initialized @(17,0)
GPGPU-Sim uArch: Shader 400 bind to kernel 1 '_Z14matrix_mul_gpuPiS_S_i'
GPGPU-Sim uArch: core:400, cta: 0 initialized @(17,0)
GPGPU-Sim uArch: Shader 432 bind to kernel 1 '_Z14matrix_mul_gpuPiS_S_i'
GPGPU-Sim uArch: core:432, cta: 0 initialized @(17,0)
GPGPU-Sim uArch: Shader 464 bind to kernel 1 '_Z14matrix_mul_gpuPiS_S_i'
GPGPU-Sim uArch: core:464, cta: 0 initialized @(17,0)
GPGPU-Sim uArch: Shader 16 bind to kernel 1 '_Z14matrix_mul_gpuPiS_S_i'
GPGPU-Sim uArch: core: 16, cta: 0 initialized @(17,0)
GPGPU-Sim uArch: Shader 49 bind to kernel 1 '_Z14matrix_mul_gpuPiS_S_i'
GPGPU-Sim uArch: core: 49, cta: 0 initialized @(18,0)
GPGPU-Sim uArch: Shader 81 bind to kernel 1 '_Z14matrix_mul_gpuPiS_S_i'
GPGPU-Sim uArch: core: 81, cta: 0 initialized @(18,0)
GPGPU-Sim uArch: Shader 113 bind to kernel 1 '_Z14matrix_mul_gpuPiS_S_i'
GPGPU-Sim uArch: core:113, cta: 0 initialized @(18,0)
GPGPU-Sim uArch: Shader 145 bind to kernel 1 '_Z14matrix_mul_gpuPiS_S_i'
GPGPU-Sim uArch: core:145, cta: 0 initialized @(18,0)
GPGPU-Sim uArch: Shader 177 bind to kernel 1 '_Z14matrix_mul_gpuPiS_S_i'
GPGPU-Sim uArch: core:177, cta: 0 initialized @(18,0)
GPGPU-Sim uArch: Shader 209 bind to kernel 1 '_Z14matrix_mul_gpuPiS_S_i'
GPGPU-Sim uArch: core:209, cta: 0 initialized @(18,0)
GPGPU-Sim uArch: Shader 241 bind to kernel 1 '_Z14matrix_mul_gpuPiS_S_i'
GPGPU-Sim uArch: core:241, cta: 0 initialized @(18,0)
GPGPU-Sim uArch: Shader 273 bind to kernel 1 '_Z14matrix_mul_gpuPiS_S_i'
GPGPU-Sim uArch: core:273, cta: 0 initialized @(18,0)
GPGPU-Sim uArch: Shader 305 bind to kernel 1 '_Z14matrix_mul_gpuPiS_S_i'
GPGPU-Sim uArch: core:305, cta: 0 initialized @(18,0)
GPGPU-Sim uArch: Shader 337 bind to kernel 1 '_Z14matrix_mul_gpuPiS_S_i'
GPGPU-Sim uArch: core:337, cta: 0 initialized @(18,0)
GPGPU-Sim uArch: Shader 369 bind to kernel 1 '_Z14matrix_mul_gpuPiS_S_i'
GPGPU-Sim uArch: core:369, cta: 0 initialized @(18,0)
GPGPU-Sim uArch: Shader 401 bind to kernel 1 '_Z14matrix_mul_gpuPiS_S_i'
GPGPU-Sim uArch: core:401, cta: 0 initialized @(18,0)
GPGPU-Sim uArch: Shader 433 bind to kernel 1 '_Z14matrix_mul_gpuPiS_S_i'
GPGPU-Sim uArch: core:433, cta: 0 initialized @(18,0)
GPGPU-Sim uArch: Shader 465 bind to kernel 1 '_Z14matrix_mul_gpuPiS_S_i'
GPGPU-Sim uArch: core:465, cta: 0 initialized @(18,0)
GPGPU-Sim uArch: Shader 17 bind to kernel 1 '_Z14matrix_mul_gpuPiS_S_i'
GPGPU-Sim uArch: core: 17, cta: 0 initialized @(18,0)
GPGPU-Sim uArch: Shader 50 bind to kernel 1 '_Z14matrix_mul_gpuPiS_S_i'
GPGPU-Sim uArch: core: 50, cta: 0 initialized @(19,0)
GPGPU-Sim uArch: Shader 82 bind to kernel 1 '_Z14matrix_mul_gpuPiS_S_i'
GPGPU-Sim uArch: core: 82, cta: 0 initialized @(19,0)
GPGPU-Sim uArch: Shader 114 bind to kernel 1 '_Z14matrix_mul_gpuPiS_S_i'
GPGPU-Sim uArch: core:114, cta: 0 initialized @(19,0)
GPGPU-Sim uArch: Shader 146 bind to kernel 1 '_Z14matrix_mul_gpuPiS_S_i'
GPGPU-Sim uArch: core:146, cta: 0 initialized @(19,0)
GPGPU-Sim uArch: Shader 178 bind to kernel 1 '_Z14matrix_mul_gpuPiS_S_i'
GPGPU-Sim uArch: core:178, cta: 0 initialized @(19,0)
GPGPU-Sim uArch: Shader 210 bind to kernel 1 '_Z14matrix_mul_gpuPiS_S_i'
GPGPU-Sim uArch: core:210, cta: 0 initialized @(19,0)
GPGPU-Sim uArch: Shader 242 bind to kernel 1 '_Z14matrix_mul_gpuPiS_S_i'
GPGPU-Sim uArch: core:242, cta: 0 initialized @(19,0)
GPGPU-Sim uArch: Shader 274 bind to kernel 1 '_Z14matrix_mul_gpuPiS_S_i'
GPGPU-Sim uArch: core:274, cta: 0 initialized @(19,0)
GPGPU-Sim uArch: Shader 306 bind to kernel 1 '_Z14matrix_mul_gpuPiS_S_i'
GPGPU-Sim uArch: core:306, cta: 0 initialized @(19,0)
GPGPU-Sim uArch: Shader 338 bind to kernel 1 '_Z14matrix_mul_gpuPiS_S_i'
GPGPU-Sim uArch: core:338, cta: 0 initialized @(19,0)
GPGPU-Sim uArch: Shader 370 bind to kernel 1 '_Z14matrix_mul_gpuPiS_S_i'
GPGPU-Sim uArch: core:370, cta: 0 initialized @(19,0)
GPGPU-Sim uArch: Shader 402 bind to kernel 1 '_Z14matrix_mul_gpuPiS_S_i'
GPGPU-Sim uArch: core:402, cta: 0 initialized @(19,0)
GPGPU-Sim uArch: Shader 434 bind to kernel 1 '_Z14matrix_mul_gpuPiS_S_i'
GPGPU-Sim uArch: core:434, cta: 0 initialized @(19,0)
GPGPU-Sim uArch: Shader 466 bind to kernel 1 '_Z14matrix_mul_gpuPiS_S_i'
GPGPU-Sim uArch: core:466, cta: 0 initialized @(19,0)
GPGPU-Sim uArch: Shader 18 bind to kernel 1 '_Z14matrix_mul_gpuPiS_S_i'
GPGPU-Sim uArch: core: 18, cta: 0 initialized @(19,0)
GPGPU-Sim uArch: Shader 51 bind to kernel 1 '_Z14matrix_mul_gpuPiS_S_i'
GPGPU-Sim uArch: core: 51, cta: 0 initialized @(20,0)
GPGPU-Sim uArch: Shader 83 bind to kernel 1 '_Z14matrix_mul_gpuPiS_S_i'
GPGPU-Sim uArch: core: 83, cta: 0 initialized @(20,0)
GPGPU-Sim uArch: Shader 115 bind to kernel 1 '_Z14matrix_mul_gpuPiS_S_i'
GPGPU-Sim uArch: core:115, cta: 0 initialized @(20,0)
GPGPU-Sim uArch: Shader 147 bind to kernel 1 '_Z14matrix_mul_gpuPiS_S_i'
GPGPU-Sim uArch: core:147, cta: 0 initialized @(20,0)
GPGPU-Sim uArch: Shader 179 bind to kernel 1 '_Z14matrix_mul_gpuPiS_S_i'
GPGPU-Sim uArch: core:179, cta: 0 initialized @(20,0)
GPGPU-Sim uArch: Shader 211 bind to kernel 1 '_Z14matrix_mul_gpuPiS_S_i'
GPGPU-Sim uArch: core:211, cta: 0 initialized @(20,0)
GPGPU-Sim uArch: Shader 243 bind to kernel 1 '_Z14matrix_mul_gpuPiS_S_i'
GPGPU-Sim uArch: core:243, cta: 0 initialized @(20,0)
GPGPU-Sim uArch: Shader 275 bind to kernel 1 '_Z14matrix_mul_gpuPiS_S_i'
GPGPU-Sim uArch: core:275, cta: 0 initialized @(20,0)
GPGPU-Sim uArch: Shader 307 bind to kernel 1 '_Z14matrix_mul_gpuPiS_S_i'
GPGPU-Sim uArch: core:307, cta: 0 initialized @(20,0)
GPGPU-Sim uArch: Shader 339 bind to kernel 1 '_Z14matrix_mul_gpuPiS_S_i'
GPGPU-Sim uArch: core:339, cta: 0 initialized @(20,0)
GPGPU-Sim uArch: Shader 371 bind to kernel 1 '_Z14matrix_mul_gpuPiS_S_i'
GPGPU-Sim uArch: core:371, cta: 0 initialized @(20,0)
GPGPU-Sim uArch: Shader 403 bind to kernel 1 '_Z14matrix_mul_gpuPiS_S_i'
GPGPU-Sim uArch: core:403, cta: 0 initialized @(20,0)
GPGPU-Sim uArch: Shader 435 bind to kernel 1 '_Z14matrix_mul_gpuPiS_S_i'
GPGPU-Sim uArch: core:435, cta: 0 initialized @(20,0)
GPGPU-Sim uArch: Shader 467 bind to kernel 1 '_Z14matrix_mul_gpuPiS_S_i'
GPGPU-Sim uArch: core:467, cta: 0 initialized @(20,0)
GPGPU-Sim uArch: Shader 19 bind to kernel 1 '_Z14matrix_mul_gpuPiS_S_i'
GPGPU-Sim uArch: core: 19, cta: 0 initialized @(20,0)
GPGPU-Sim uArch: Shader 52 bind to kernel 1 '_Z14matrix_mul_gpuPiS_S_i'
GPGPU-Sim uArch: core: 52, cta: 0 initialized @(21,0)
GPGPU-Sim uArch: Shader 84 bind to kernel 1 '_Z14matrix_mul_gpuPiS_S_i'
GPGPU-Sim uArch: core: 84, cta: 0 initialized @(21,0)
GPGPU-Sim uArch: Shader 116 bind to kernel 1 '_Z14matrix_mul_gpuPiS_S_i'
GPGPU-Sim uArch: core:116, cta: 0 initialized @(21,0)
GPGPU-Sim uArch: Shader 148 bind to kernel 1 '_Z14matrix_mul_gpuPiS_S_i'
GPGPU-Sim uArch: core:148, cta: 0 initialized @(21,0)
GPGPU-Sim uArch: Shader 180 bind to kernel 1 '_Z14matrix_mul_gpuPiS_S_i'
GPGPU-Sim uArch: core:180, cta: 0 initialized @(21,0)
GPGPU-Sim uArch: Shader 212 bind to kernel 1 '_Z14matrix_mul_gpuPiS_S_i'
GPGPU-Sim uArch: core:212, cta: 0 initialized @(21,0)
GPGPU-Sim uArch: Shader 244 bind to kernel 1 '_Z14matrix_mul_gpuPiS_S_i'
GPGPU-Sim uArch: core:244, cta: 0 initialized @(21,0)
GPGPU-Sim uArch: Shader 276 bind to kernel 1 '_Z14matrix_mul_gpuPiS_S_i'
GPGPU-Sim uArch: core:276, cta: 0 initialized @(21,0)
GPGPU-Sim uArch: Shader 308 bind to kernel 1 '_Z14matrix_mul_gpuPiS_S_i'
GPGPU-Sim uArch: core:308, cta: 0 initialized @(21,0)
GPGPU-Sim uArch: Shader 340 bind to kernel 1 '_Z14matrix_mul_gpuPiS_S_i'
GPGPU-Sim uArch: core:340, cta: 0 initialized @(21,0)
GPGPU-Sim uArch: Shader 372 bind to kernel 1 '_Z14matrix_mul_gpuPiS_S_i'
GPGPU-Sim uArch: core:372, cta: 0 initialized @(21,0)
GPGPU-Sim uArch: Shader 404 bind to kernel 1 '_Z14matrix_mul_gpuPiS_S_i'
GPGPU-Sim uArch: core:404, cta: 0 initialized @(21,0)
GPGPU-Sim uArch: Shader 436 bind to kernel 1 '_Z14matrix_mul_gpuPiS_S_i'
GPGPU-Sim uArch: core:436, cta: 0 initialized @(21,0)
GPGPU-Sim uArch: Shader 468 bind to kernel 1 '_Z14matrix_mul_gpuPiS_S_i'
GPGPU-Sim uArch: core:468, cta: 0 initialized @(21,0)
GPGPU-Sim uArch: Shader 20 bind to kernel 1 '_Z14matrix_mul_gpuPiS_S_i'
GPGPU-Sim uArch: core: 20, cta: 0 initialized @(21,0)
GPGPU-Sim uArch: Shader 53 bind to kernel 1 '_Z14matrix_mul_gpuPiS_S_i'
GPGPU-Sim uArch: core: 53, cta: 0 initialized @(22,0)
GPGPU-Sim uArch: Shader 85 bind to kernel 1 '_Z14matrix_mul_gpuPiS_S_i'
GPGPU-Sim uArch: core: 85, cta: 0 initialized @(22,0)
GPGPU-Sim uArch: Shader 117 bind to kernel 1 '_Z14matrix_mul_gpuPiS_S_i'
GPGPU-Sim uArch: core:117, cta: 0 initialized @(22,0)
GPGPU-Sim uArch: Shader 149 bind to kernel 1 '_Z14matrix_mul_gpuPiS_S_i'
GPGPU-Sim uArch: core:149, cta: 0 initialized @(22,0)
GPGPU-Sim uArch: Shader 181 bind to kernel 1 '_Z14matrix_mul_gpuPiS_S_i'
GPGPU-Sim uArch: core:181, cta: 0 initialized @(22,0)
GPGPU-Sim uArch: Shader 213 bind to kernel 1 '_Z14matrix_mul_gpuPiS_S_i'
GPGPU-Sim uArch: core:213, cta: 0 initialized @(22,0)
GPGPU-Sim uArch: Shader 245 bind to kernel 1 '_Z14matrix_mul_gpuPiS_S_i'
GPGPU-Sim uArch: core:245, cta: 0 initialized @(22,0)
GPGPU-Sim uArch: Shader 277 bind to kernel 1 '_Z14matrix_mul_gpuPiS_S_i'
GPGPU-Sim uArch: core:277, cta: 0 initialized @(22,0)
GPGPU-Sim uArch: Shader 309 bind to kernel 1 '_Z14matrix_mul_gpuPiS_S_i'
GPGPU-Sim uArch: core:309, cta: 0 initialized @(22,0)
GPGPU-Sim uArch: Shader 341 bind to kernel 1 '_Z14matrix_mul_gpuPiS_S_i'
GPGPU-Sim uArch: core:341, cta: 0 initialized @(22,0)
GPGPU-Sim uArch: Shader 373 bind to kernel 1 '_Z14matrix_mul_gpuPiS_S_i'
GPGPU-Sim uArch: core:373, cta: 0 initialized @(22,0)
GPGPU-Sim uArch: Shader 405 bind to kernel 1 '_Z14matrix_mul_gpuPiS_S_i'
GPGPU-Sim uArch: core:405, cta: 0 initialized @(22,0)
GPGPU-Sim uArch: Shader 437 bind to kernel 1 '_Z14matrix_mul_gpuPiS_S_i'
GPGPU-Sim uArch: core:437, cta: 0 initialized @(22,0)
GPGPU-Sim uArch: Shader 469 bind to kernel 1 '_Z14matrix_mul_gpuPiS_S_i'
GPGPU-Sim uArch: core:469, cta: 0 initialized @(22,0)
GPGPU-Sim uArch: Shader 21 bind to kernel 1 '_Z14matrix_mul_gpuPiS_S_i'
GPGPU-Sim uArch: core: 21, cta: 0 initialized @(22,0)
GPGPU-Sim uArch: Shader 54 bind to kernel 1 '_Z14matrix_mul_gpuPiS_S_i'
GPGPU-Sim uArch: core: 54, cta: 0 initialized @(23,0)
GPGPU-Sim uArch: Shader 86 bind to kernel 1 '_Z14matrix_mul_gpuPiS_S_i'
GPGPU-Sim uArch: core: 86, cta: 0 initialized @(23,0)
GPGPU-Sim uArch: Shader 118 bind to kernel 1 '_Z14matrix_mul_gpuPiS_S_i'
GPGPU-Sim uArch: core:118, cta: 0 initialized @(23,0)
GPGPU-Sim uArch: Shader 150 bind to kernel 1 '_Z14matrix_mul_gpuPiS_S_i'
GPGPU-Sim uArch: core:150, cta: 0 initialized @(23,0)
GPGPU-Sim uArch: Shader 182 bind to kernel 1 '_Z14matrix_mul_gpuPiS_S_i'
GPGPU-Sim uArch: core:182, cta: 0 initialized @(23,0)
GPGPU-Sim uArch: Shader 214 bind to kernel 1 '_Z14matrix_mul_gpuPiS_S_i'
GPGPU-Sim uArch: core:214, cta: 0 initialized @(23,0)
GPGPU-Sim uArch: Shader 246 bind to kernel 1 '_Z14matrix_mul_gpuPiS_S_i'
GPGPU-Sim uArch: core:246, cta: 0 initialized @(23,0)
GPGPU-Sim uArch: Shader 278 bind to kernel 1 '_Z14matrix_mul_gpuPiS_S_i'
GPGPU-Sim uArch: core:278, cta: 0 initialized @(23,0)
GPGPU-Sim uArch: Shader 310 bind to kernel 1 '_Z14matrix_mul_gpuPiS_S_i'
GPGPU-Sim uArch: core:310, cta: 0 initialized @(23,0)
GPGPU-Sim uArch: Shader 342 bind to kernel 1 '_Z14matrix_mul_gpuPiS_S_i'
GPGPU-Sim uArch: core:342, cta: 0 initialized @(23,0)
GPGPU-Sim uArch: Shader 374 bind to kernel 1 '_Z14matrix_mul_gpuPiS_S_i'
GPGPU-Sim uArch: core:374, cta: 0 initialized @(23,0)
GPGPU-Sim uArch: Shader 406 bind to kernel 1 '_Z14matrix_mul_gpuPiS_S_i'
GPGPU-Sim uArch: core:406, cta: 0 initialized @(23,0)
GPGPU-Sim uArch: Shader 438 bind to kernel 1 '_Z14matrix_mul_gpuPiS_S_i'
GPGPU-Sim uArch: core:438, cta: 0 initialized @(23,0)
GPGPU-Sim uArch: Shader 470 bind to kernel 1 '_Z14matrix_mul_gpuPiS_S_i'
GPGPU-Sim uArch: core:470, cta: 0 initialized @(23,0)
GPGPU-Sim uArch: Shader 22 bind to kernel 1 '_Z14matrix_mul_gpuPiS_S_i'
GPGPU-Sim uArch: core: 22, cta: 0 initialized @(23,0)
GPGPU-Sim uArch: Shader 55 bind to kernel 1 '_Z14matrix_mul_gpuPiS_S_i'
GPGPU-Sim uArch: core: 55, cta: 0 initialized @(24,0)
GPGPU-Sim uArch: Shader 87 bind to kernel 1 '_Z14matrix_mul_gpuPiS_S_i'
GPGPU-Sim uArch: core: 87, cta: 0 initialized @(24,0)
GPGPU-Sim uArch: Shader 119 bind to kernel 1 '_Z14matrix_mul_gpuPiS_S_i'
GPGPU-Sim uArch: core:119, cta: 0 initialized @(24,0)
GPGPU-Sim uArch: Shader 151 bind to kernel 1 '_Z14matrix_mul_gpuPiS_S_i'
GPGPU-Sim uArch: core:151, cta: 0 initialized @(24,0)
GPGPU-Sim uArch: Shader 183 bind to kernel 1 '_Z14matrix_mul_gpuPiS_S_i'
GPGPU-Sim uArch: core:183, cta: 0 initialized @(24,0)
GPGPU-Sim uArch: Shader 215 bind to kernel 1 '_Z14matrix_mul_gpuPiS_S_i'
GPGPU-Sim uArch: core:215, cta: 0 initialized @(24,0)
GPGPU-Sim uArch: Shader 247 bind to kernel 1 '_Z14matrix_mul_gpuPiS_S_i'
GPGPU-Sim uArch: core:247, cta: 0 initialized @(24,0)
GPGPU-Sim uArch: Shader 279 bind to kernel 1 '_Z14matrix_mul_gpuPiS_S_i'
GPGPU-Sim uArch: core:279, cta: 0 initialized @(24,0)
GPGPU-Sim uArch: Shader 311 bind to kernel 1 '_Z14matrix_mul_gpuPiS_S_i'
GPGPU-Sim uArch: core:311, cta: 0 initialized @(24,0)
GPGPU-Sim uArch: Shader 343 bind to kernel 1 '_Z14matrix_mul_gpuPiS_S_i'
GPGPU-Sim uArch: core:343, cta: 0 initialized @(24,0)
GPGPU-Sim uArch: Shader 375 bind to kernel 1 '_Z14matrix_mul_gpuPiS_S_i'
GPGPU-Sim uArch: core:375, cta: 0 initialized @(24,0)
GPGPU-Sim uArch: Shader 407 bind to kernel 1 '_Z14matrix_mul_gpuPiS_S_i'
GPGPU-Sim uArch: core:407, cta: 0 initialized @(24,0)
GPGPU-Sim uArch: Shader 439 bind to kernel 1 '_Z14matrix_mul_gpuPiS_S_i'
GPGPU-Sim uArch: core:439, cta: 0 initialized @(24,0)
GPGPU-Sim uArch: Shader 471 bind to kernel 1 '_Z14matrix_mul_gpuPiS_S_i'
GPGPU-Sim uArch: core:471, cta: 0 initialized @(24,0)
GPGPU-Sim uArch: Shader 23 bind to kernel 1 '_Z14matrix_mul_gpuPiS_S_i'
GPGPU-Sim uArch: core: 23, cta: 0 initialized @(24,0)
GPGPU-Sim uArch: Shader 56 bind to kernel 1 '_Z14matrix_mul_gpuPiS_S_i'
GPGPU-Sim uArch: core: 56, cta: 0 initialized @(25,0)
GPGPU-Sim uArch: Shader 88 bind to kernel 1 '_Z14matrix_mul_gpuPiS_S_i'
GPGPU-Sim uArch: core: 88, cta: 0 initialized @(25,0)
GPGPU-Sim uArch: Shader 120 bind to kernel 1 '_Z14matrix_mul_gpuPiS_S_i'
GPGPU-Sim uArch: core:120, cta: 0 initialized @(25,0)
GPGPU-Sim uArch: Shader 152 bind to kernel 1 '_Z14matrix_mul_gpuPiS_S_i'
GPGPU-Sim uArch: core:152, cta: 0 initialized @(25,0)
GPGPU-Sim uArch: Shader 184 bind to kernel 1 '_Z14matrix_mul_gpuPiS_S_i'
GPGPU-Sim uArch: core:184, cta: 0 initialized @(25,0)
GPGPU-Sim uArch: Shader 216 bind to kernel 1 '_Z14matrix_mul_gpuPiS_S_i'
GPGPU-Sim uArch: core:216, cta: 0 initialized @(25,0)
GPGPU-Sim uArch: Shader 248 bind to kernel 1 '_Z14matrix_mul_gpuPiS_S_i'
GPGPU-Sim uArch: core:248, cta: 0 initialized @(25,0)
GPGPU-Sim uArch: Shader 280 bind to kernel 1 '_Z14matrix_mul_gpuPiS_S_i'
GPGPU-Sim uArch: core:280, cta: 0 initialized @(25,0)
GPGPU-Sim uArch: Shader 312 bind to kernel 1 '_Z14matrix_mul_gpuPiS_S_i'
GPGPU-Sim uArch: core:312, cta: 0 initialized @(25,0)
GPGPU-Sim uArch: Shader 344 bind to kernel 1 '_Z14matrix_mul_gpuPiS_S_i'
GPGPU-Sim uArch: core:344, cta: 0 initialized @(25,0)
GPGPU-Sim uArch: Shader 376 bind to kernel 1 '_Z14matrix_mul_gpuPiS_S_i'
GPGPU-Sim uArch: core:376, cta: 0 initialized @(25,0)
GPGPU-Sim uArch: Shader 408 bind to kernel 1 '_Z14matrix_mul_gpuPiS_S_i'
GPGPU-Sim uArch: core:408, cta: 0 initialized @(25,0)
GPGPU-Sim uArch: Shader 440 bind to kernel 1 '_Z14matrix_mul_gpuPiS_S_i'
GPGPU-Sim uArch: core:440, cta: 0 initialized @(25,0)
GPGPU-Sim uArch: Shader 472 bind to kernel 1 '_Z14matrix_mul_gpuPiS_S_i'
GPGPU-Sim uArch: core:472, cta: 0 initialized @(25,0)
GPGPU-Sim uArch: Shader 24 bind to kernel 1 '_Z14matrix_mul_gpuPiS_S_i'
GPGPU-Sim uArch: core: 24, cta: 0 initialized @(25,0)
GPGPU-Sim uArch: Shader 57 bind to kernel 1 '_Z14matrix_mul_gpuPiS_S_i'
GPGPU-Sim uArch: core: 57, cta: 0 initialized @(26,0)
GPGPU-Sim uArch: Shader 89 bind to kernel 1 '_Z14matrix_mul_gpuPiS_S_i'
GPGPU-Sim uArch: core: 89, cta: 0 initialized @(26,0)
GPGPU-Sim uArch: Shader 121 bind to kernel 1 '_Z14matrix_mul_gpuPiS_S_i'
GPGPU-Sim uArch: core:121, cta: 0 initialized @(26,0)
GPGPU-Sim uArch: Shader 153 bind to kernel 1 '_Z14matrix_mul_gpuPiS_S_i'
GPGPU-Sim uArch: core:153, cta: 0 initialized @(26,0)
GPGPU-Sim uArch: Shader 185 bind to kernel 1 '_Z14matrix_mul_gpuPiS_S_i'
GPGPU-Sim uArch: core:185, cta: 0 initialized @(26,0)
GPGPU-Sim uArch: Shader 217 bind to kernel 1 '_Z14matrix_mul_gpuPiS_S_i'
GPGPU-Sim uArch: core:217, cta: 0 initialized @(26,0)
GPGPU-Sim uArch: Shader 249 bind to kernel 1 '_Z14matrix_mul_gpuPiS_S_i'
GPGPU-Sim uArch: core:249, cta: 0 initialized @(26,0)
GPGPU-Sim uArch: Shader 281 bind to kernel 1 '_Z14matrix_mul_gpuPiS_S_i'
GPGPU-Sim uArch: core:281, cta: 0 initialized @(26,0)
GPGPU-Sim uArch: Shader 313 bind to kernel 1 '_Z14matrix_mul_gpuPiS_S_i'
GPGPU-Sim uArch: core:313, cta: 0 initialized @(26,0)
GPGPU-Sim uArch: Shader 345 bind to kernel 1 '_Z14matrix_mul_gpuPiS_S_i'
GPGPU-Sim uArch: core:345, cta: 0 initialized @(26,0)
GPGPU-Sim uArch: Shader 377 bind to kernel 1 '_Z14matrix_mul_gpuPiS_S_i'
GPGPU-Sim uArch: core:377, cta: 0 initialized @(26,0)
GPGPU-Sim uArch: Shader 409 bind to kernel 1 '_Z14matrix_mul_gpuPiS_S_i'
GPGPU-Sim uArch: core:409, cta: 0 initialized @(26,0)
GPGPU-Sim uArch: Shader 441 bind to kernel 1 '_Z14matrix_mul_gpuPiS_S_i'
GPGPU-Sim uArch: core:441, cta: 0 initialized @(26,0)
GPGPU-Sim uArch: Shader 473 bind to kernel 1 '_Z14matrix_mul_gpuPiS_S_i'
GPGPU-Sim uArch: core:473, cta: 0 initialized @(26,0)
GPGPU-Sim uArch: Shader 25 bind to kernel 1 '_Z14matrix_mul_gpuPiS_S_i'
GPGPU-Sim uArch: core: 25, cta: 0 initialized @(26,0)
GPGPU-Sim uArch: Shader 58 bind to kernel 1 '_Z14matrix_mul_gpuPiS_S_i'
GPGPU-Sim uArch: core: 58, cta: 0 initialized @(27,0)
GPGPU-Sim uArch: Shader 90 bind to kernel 1 '_Z14matrix_mul_gpuPiS_S_i'
GPGPU-Sim uArch: core: 90, cta: 0 initialized @(27,0)
GPGPU-Sim uArch: Shader 122 bind to kernel 1 '_Z14matrix_mul_gpuPiS_S_i'
GPGPU-Sim uArch: core:122, cta: 0 initialized @(27,0)
GPGPU-Sim uArch: Shader 154 bind to kernel 1 '_Z14matrix_mul_gpuPiS_S_i'
GPGPU-Sim uArch: core:154, cta: 0 initialized @(27,0)
GPGPU-Sim uArch: Shader 186 bind to kernel 1 '_Z14matrix_mul_gpuPiS_S_i'
GPGPU-Sim uArch: core:186, cta: 0 initialized @(27,0)
GPGPU-Sim uArch: Shader 218 bind to kernel 1 '_Z14matrix_mul_gpuPiS_S_i'
GPGPU-Sim uArch: core:218, cta: 0 initialized @(27,0)
GPGPU-Sim uArch: Shader 250 bind to kernel 1 '_Z14matrix_mul_gpuPiS_S_i'
GPGPU-Sim uArch: core:250, cta: 0 initialized @(27,0)
GPGPU-Sim uArch: Shader 282 bind to kernel 1 '_Z14matrix_mul_gpuPiS_S_i'
GPGPU-Sim uArch: core:282, cta: 0 initialized @(27,0)
GPGPU-Sim uArch: Shader 314 bind to kernel 1 '_Z14matrix_mul_gpuPiS_S_i'
GPGPU-Sim uArch: core:314, cta: 0 initialized @(27,0)
GPGPU-Sim uArch: Shader 346 bind to kernel 1 '_Z14matrix_mul_gpuPiS_S_i'
GPGPU-Sim uArch: core:346, cta: 0 initialized @(27,0)
GPGPU-Sim uArch: Shader 378 bind to kernel 1 '_Z14matrix_mul_gpuPiS_S_i'
GPGPU-Sim uArch: core:378, cta: 0 initialized @(27,0)
GPGPU-Sim uArch: Shader 410 bind to kernel 1 '_Z14matrix_mul_gpuPiS_S_i'
GPGPU-Sim uArch: core:410, cta: 0 initialized @(27,0)
GPGPU-Sim uArch: Shader 442 bind to kernel 1 '_Z14matrix_mul_gpuPiS_S_i'
GPGPU-Sim uArch: core:442, cta: 0 initialized @(27,0)
GPGPU-Sim uArch: Shader 474 bind to kernel 1 '_Z14matrix_mul_gpuPiS_S_i'
GPGPU-Sim uArch: core:474, cta: 0 initialized @(27,0)
GPGPU-Sim uArch: Shader 26 bind to kernel 1 '_Z14matrix_mul_gpuPiS_S_i'
GPGPU-Sim uArch: core: 26, cta: 0 initialized @(27,0)
GPGPU-Sim uArch: Shader 59 bind to kernel 1 '_Z14matrix_mul_gpuPiS_S_i'
GPGPU-Sim uArch: core: 59, cta: 0 initialized @(28,0)
GPGPU-Sim uArch: Shader 91 bind to kernel 1 '_Z14matrix_mul_gpuPiS_S_i'
GPGPU-Sim uArch: core: 91, cta: 0 initialized @(28,0)
GPGPU-Sim uArch: Shader 123 bind to kernel 1 '_Z14matrix_mul_gpuPiS_S_i'
GPGPU-Sim uArch: core:123, cta: 0 initialized @(28,0)
GPGPU-Sim uArch: Shader 155 bind to kernel 1 '_Z14matrix_mul_gpuPiS_S_i'
GPGPU-Sim uArch: core:155, cta: 0 initialized @(28,0)
GPGPU-Sim uArch: Shader 187 bind to kernel 1 '_Z14matrix_mul_gpuPiS_S_i'
GPGPU-Sim uArch: core:187, cta: 0 initialized @(28,0)
GPGPU-Sim uArch: Shader 219 bind to kernel 1 '_Z14matrix_mul_gpuPiS_S_i'
GPGPU-Sim uArch: core:219, cta: 0 initialized @(28,0)
GPGPU-Sim uArch: Shader 251 bind to kernel 1 '_Z14matrix_mul_gpuPiS_S_i'
GPGPU-Sim uArch: core:251, cta: 0 initialized @(28,0)
GPGPU-Sim uArch: Shader 283 bind to kernel 1 '_Z14matrix_mul_gpuPiS_S_i'
GPGPU-Sim uArch: core:283, cta: 0 initialized @(28,0)
GPGPU-Sim uArch: Shader 315 bind to kernel 1 '_Z14matrix_mul_gpuPiS_S_i'
GPGPU-Sim uArch: core:315, cta: 0 initialized @(28,0)
GPGPU-Sim uArch: Shader 347 bind to kernel 1 '_Z14matrix_mul_gpuPiS_S_i'
GPGPU-Sim uArch: core:347, cta: 0 initialized @(28,0)
GPGPU-Sim uArch: Shader 379 bind to kernel 1 '_Z14matrix_mul_gpuPiS_S_i'
GPGPU-Sim uArch: core:379, cta: 0 initialized @(28,0)
GPGPU-Sim uArch: Shader 411 bind to kernel 1 '_Z14matrix_mul_gpuPiS_S_i'
GPGPU-Sim uArch: core:411, cta: 0 initialized @(28,0)
GPGPU-Sim uArch: Shader 443 bind to kernel 1 '_Z14matrix_mul_gpuPiS_S_i'
GPGPU-Sim uArch: core:443, cta: 0 initialized @(28,0)
GPGPU-Sim uArch: Shader 475 bind to kernel 1 '_Z14matrix_mul_gpuPiS_S_i'
GPGPU-Sim uArch: core:475, cta: 0 initialized @(28,0)
GPGPU-Sim uArch: Shader 27 bind to kernel 1 '_Z14matrix_mul_gpuPiS_S_i'
GPGPU-Sim uArch: core: 27, cta: 0 initialized @(28,0)
GPGPU-Sim uArch: Shader 60 bind to kernel 1 '_Z14matrix_mul_gpuPiS_S_i'
GPGPU-Sim uArch: core: 60, cta: 0 initialized @(29,0)
GPGPU-Sim uArch: Shader 92 bind to kernel 1 '_Z14matrix_mul_gpuPiS_S_i'
GPGPU-Sim uArch: core: 92, cta: 0 initialized @(29,0)
GPGPU-Sim uArch: Shader 124 bind to kernel 1 '_Z14matrix_mul_gpuPiS_S_i'
GPGPU-Sim uArch: core:124, cta: 0 initialized @(29,0)
GPGPU-Sim uArch: Shader 156 bind to kernel 1 '_Z14matrix_mul_gpuPiS_S_i'
GPGPU-Sim uArch: core:156, cta: 0 initialized @(29,0)
GPGPU-Sim uArch: Shader 188 bind to kernel 1 '_Z14matrix_mul_gpuPiS_S_i'
GPGPU-Sim uArch: core:188, cta: 0 initialized @(29,0)
GPGPU-Sim uArch: Shader 220 bind to kernel 1 '_Z14matrix_mul_gpuPiS_S_i'
GPGPU-Sim uArch: core:220, cta: 0 initialized @(29,0)
GPGPU-Sim uArch: Shader 252 bind to kernel 1 '_Z14matrix_mul_gpuPiS_S_i'
GPGPU-Sim uArch: core:252, cta: 0 initialized @(29,0)
GPGPU-Sim uArch: Shader 284 bind to kernel 1 '_Z14matrix_mul_gpuPiS_S_i'
GPGPU-Sim uArch: core:284, cta: 0 initialized @(29,0)
GPGPU-Sim uArch: Shader 316 bind to kernel 1 '_Z14matrix_mul_gpuPiS_S_i'
GPGPU-Sim uArch: core:316, cta: 0 initialized @(29,0)
GPGPU-Sim uArch: Shader 348 bind to kernel 1 '_Z14matrix_mul_gpuPiS_S_i'
GPGPU-Sim uArch: core:348, cta: 0 initialized @(29,0)
GPGPU-Sim uArch: Shader 380 bind to kernel 1 '_Z14matrix_mul_gpuPiS_S_i'
GPGPU-Sim uArch: core:380, cta: 0 initialized @(29,0)
GPGPU-Sim uArch: Shader 412 bind to kernel 1 '_Z14matrix_mul_gpuPiS_S_i'
GPGPU-Sim uArch: core:412, cta: 0 initialized @(29,0)
GPGPU-Sim uArch: Shader 444 bind to kernel 1 '_Z14matrix_mul_gpuPiS_S_i'
GPGPU-Sim uArch: core:444, cta: 0 initialized @(29,0)
GPGPU-Sim uArch: Shader 476 bind to kernel 1 '_Z14matrix_mul_gpuPiS_S_i'
GPGPU-Sim uArch: core:476, cta: 0 initialized @(29,0)
GPGPU-Sim uArch: Shader 28 bind to kernel 1 '_Z14matrix_mul_gpuPiS_S_i'
GPGPU-Sim uArch: core: 28, cta: 0 initialized @(29,0)
GPGPU-Sim uArch: Shader 61 bind to kernel 1 '_Z14matrix_mul_gpuPiS_S_i'
GPGPU-Sim uArch: core: 61, cta: 0 initialized @(30,0)
GPGPU-Sim uArch: Shader 93 bind to kernel 1 '_Z14matrix_mul_gpuPiS_S_i'
GPGPU-Sim uArch: core: 93, cta: 0 initialized @(30,0)
GPGPU-Sim uArch: Shader 125 bind to kernel 1 '_Z14matrix_mul_gpuPiS_S_i'
GPGPU-Sim uArch: core:125, cta: 0 initialized @(30,0)
GPGPU-Sim uArch: Shader 157 bind to kernel 1 '_Z14matrix_mul_gpuPiS_S_i'
GPGPU-Sim uArch: core:157, cta: 0 initialized @(30,0)
GPGPU-Sim uArch: Shader 189 bind to kernel 1 '_Z14matrix_mul_gpuPiS_S_i'
GPGPU-Sim uArch: core:189, cta: 0 initialized @(30,0)
GPGPU-Sim uArch: Shader 221 bind to kernel 1 '_Z14matrix_mul_gpuPiS_S_i'
GPGPU-Sim uArch: core:221, cta: 0 initialized @(30,0)
GPGPU-Sim uArch: Shader 253 bind to kernel 1 '_Z14matrix_mul_gpuPiS_S_i'
GPGPU-Sim uArch: core:253, cta: 0 initialized @(30,0)
GPGPU-Sim uArch: Shader 285 bind to kernel 1 '_Z14matrix_mul_gpuPiS_S_i'
GPGPU-Sim uArch: core:285, cta: 0 initialized @(30,0)
GPGPU-Sim uArch: Shader 317 bind to kernel 1 '_Z14matrix_mul_gpuPiS_S_i'
GPGPU-Sim uArch: core:317, cta: 0 initialized @(30,0)
GPGPU-Sim uArch: Shader 349 bind to kernel 1 '_Z14matrix_mul_gpuPiS_S_i'
GPGPU-Sim uArch: core:349, cta: 0 initialized @(30,0)
GPGPU-Sim uArch: Shader 381 bind to kernel 1 '_Z14matrix_mul_gpuPiS_S_i'
GPGPU-Sim uArch: core:381, cta: 0 initialized @(30,0)
GPGPU-Sim uArch: Shader 413 bind to kernel 1 '_Z14matrix_mul_gpuPiS_S_i'
GPGPU-Sim uArch: core:413, cta: 0 initialized @(30,0)
GPGPU-Sim uArch: Shader 445 bind to kernel 1 '_Z14matrix_mul_gpuPiS_S_i'
GPGPU-Sim uArch: core:445, cta: 0 initialized @(30,0)
GPGPU-Sim uArch: Shader 477 bind to kernel 1 '_Z14matrix_mul_gpuPiS_S_i'
GPGPU-Sim uArch: core:477, cta: 0 initialized @(30,0)
GPGPU-Sim uArch: Shader 29 bind to kernel 1 '_Z14matrix_mul_gpuPiS_S_i'
GPGPU-Sim uArch: core: 29, cta: 0 initialized @(30,0)
GPGPU-Sim uArch: Shader 62 bind to kernel 1 '_Z14matrix_mul_gpuPiS_S_i'
GPGPU-Sim uArch: core: 62, cta: 0 initialized @(31,0)
GPGPU-Sim uArch: Shader 94 bind to kernel 1 '_Z14matrix_mul_gpuPiS_S_i'
GPGPU-Sim uArch: core: 94, cta: 0 initialized @(31,0)
GPGPU-Sim uArch: Shader 126 bind to kernel 1 '_Z14matrix_mul_gpuPiS_S_i'
GPGPU-Sim uArch: core:126, cta: 0 initialized @(31,0)
GPGPU-Sim uArch: Shader 158 bind to kernel 1 '_Z14matrix_mul_gpuPiS_S_i'
GPGPU-Sim uArch: core:158, cta: 0 initialized @(31,0)
GPGPU-Sim uArch: Shader 190 bind to kernel 1 '_Z14matrix_mul_gpuPiS_S_i'
GPGPU-Sim uArch: core:190, cta: 0 initialized @(31,0)
GPGPU-Sim uArch: Shader 222 bind to kernel 1 '_Z14matrix_mul_gpuPiS_S_i'
GPGPU-Sim uArch: core:222, cta: 0 initialized @(31,0)
GPGPU-Sim uArch: Shader 254 bind to kernel 1 '_Z14matrix_mul_gpuPiS_S_i'
GPGPU-Sim uArch: core:254, cta: 0 initialized @(31,0)
GPGPU-Sim uArch: Shader 286 bind to kernel 1 '_Z14matrix_mul_gpuPiS_S_i'
GPGPU-Sim uArch: core:286, cta: 0 initialized @(31,0)
GPGPU-Sim uArch: Shader 318 bind to kernel 1 '_Z14matrix_mul_gpuPiS_S_i'
GPGPU-Sim uArch: core:318, cta: 0 initialized @(31,0)
GPGPU-Sim uArch: Shader 350 bind to kernel 1 '_Z14matrix_mul_gpuPiS_S_i'
GPGPU-Sim uArch: core:350, cta: 0 initialized @(31,0)
GPGPU-Sim uArch: Shader 382 bind to kernel 1 '_Z14matrix_mul_gpuPiS_S_i'
GPGPU-Sim uArch: core:382, cta: 0 initialized @(31,0)
GPGPU-Sim uArch: Shader 414 bind to kernel 1 '_Z14matrix_mul_gpuPiS_S_i'
GPGPU-Sim uArch: core:414, cta: 0 initialized @(31,0)
GPGPU-Sim uArch: Shader 446 bind to kernel 1 '_Z14matrix_mul_gpuPiS_S_i'
GPGPU-Sim uArch: core:446, cta: 0 initialized @(31,0)
GPGPU-Sim uArch: Shader 478 bind to kernel 1 '_Z14matrix_mul_gpuPiS_S_i'
GPGPU-Sim uArch: core:478, cta: 0 initialized @(31,0)
GPGPU-Sim uArch: Shader 30 bind to kernel 1 '_Z14matrix_mul_gpuPiS_S_i'
GPGPU-Sim uArch: core: 30, cta: 0 initialized @(31,0)
GPGPU-Sim uArch: Shader 63 bind to kernel 1 '_Z14matrix_mul_gpuPiS_S_i'
GPGPU-Sim uArch: core: 63, cta: 0 initialized @(32,0)
GPGPU-Sim uArch: Shader 95 bind to kernel 1 '_Z14matrix_mul_gpuPiS_S_i'
GPGPU-Sim uArch: core: 95, cta: 0 initialized @(32,0)
GPGPU-Sim uArch: Shader 127 bind to kernel 1 '_Z14matrix_mul_gpuPiS_S_i'
GPGPU-Sim uArch: core:127, cta: 0 initialized @(32,0)
GPGPU-Sim uArch: Shader 159 bind to kernel 1 '_Z14matrix_mul_gpuPiS_S_i'
GPGPU-Sim uArch: core:159, cta: 0 initialized @(32,0)
GPGPU-Sim uArch: Shader 191 bind to kernel 1 '_Z14matrix_mul_gpuPiS_S_i'
GPGPU-Sim uArch: core:191, cta: 0 initialized @(32,0)
GPGPU-Sim uArch: Shader 223 bind to kernel 1 '_Z14matrix_mul_gpuPiS_S_i'
GPGPU-Sim uArch: core:223, cta: 0 initialized @(32,0)
GPGPU-Sim uArch: Shader 255 bind to kernel 1 '_Z14matrix_mul_gpuPiS_S_i'
GPGPU-Sim uArch: core:255, cta: 0 initialized @(32,0)
GPGPU-Sim uArch: Shader 287 bind to kernel 1 '_Z14matrix_mul_gpuPiS_S_i'
GPGPU-Sim uArch: core:287, cta: 0 initialized @(32,0)
GPGPU-Sim uArch: Shader 319 bind to kernel 1 '_Z14matrix_mul_gpuPiS_S_i'
GPGPU-Sim uArch: core:319, cta: 0 initialized @(32,0)
[...]
traffic_breakdown_coretomem[CONST_ACC_R] = 3840 {8:480,}
traffic_breakdown_coretomem[GLOBAL_ACC_R] = 2178280 {8:272285,}
traffic_breakdown_coretomem[GLOBAL_ACC_W] = 885000 {40:7530,72:4170,136:2085,}
traffic_breakdown_coretomem[INST_ACC_R] = 15360 {8:1920,}
traffic_breakdown_memtocore[CONST_ACC_R] = 34560 {72:480,}
traffic_breakdown_memtocore[GLOBAL_ACC_R] = 37030760 {136:272285,}
traffic_breakdown_memtocore[GLOBAL_ACC_W] = 110280 {8:13785,}
traffic_breakdown_memtocore[INST_ACC_R] = 261120 {136:1920,}
maxmrqlatency = 110 
maxdqlatency = 0 
maxmflatency = 11803 
averagemflatency = 845 
max_icnt2mem_latency = 15024 
max_icnt2sh_latency = 238521 
mrq_lat_table:9338 	468 	325 	630 	471 	180 	45 	0 	0 	0 	0 	0 	0 	0 	0 	0 	0 	0 	0 	0 	0 	0 	0 	0 	0 	0 	0 	0 	0 	0 	0 	0 	
dq_lat_table:0 	0 	0 	0 	0 	0 	0 	0 	0 	0 	0 	0 	0 	0 	0 	0 	0 	0 	0 	0 	0 	0 	0 	0 	0 	0 	0 	0 	0 	0 	0 	0 	
mf_lat_table:0 	0 	0 	0 	0 	0 	0 	5473 	62009 	174081 	31450 	9532 	3846 	159 	0 	0 	0 	0 	0 	0 	0 	0 	0 	0 	0 	0 	0 	0 	0 	0 	0 	0 	
icnt2mem_lat_table:0 	0 	0 	8490 	3252 	9230 	25497 	57184 	103639 	56672 	11573 	9238 	3167 	528 	0 	0 	0 	0 	0 	0 	0 	0 	0 	0 	
icnt2sh_lat_table:0 	0 	0 	3965 	160698 	101253 	6814 	35 	0 	0 	0 	0 	0 	0 	0 	0 	0 	13785 	0 	0 	0 	0 	0 	0 	
mf_lat_pw_table:0 	0 	0 	0 	0 	0 	0 	0 	0 	412 	33 	27 	0 	0 	0 	0 	0 	0 	0 	0 	0 	0 	0 	0 	0 	0 	0 	0 	0 	0 	0 	0 	
maximum concurrent accesses to same row:
dram[0]:        30        28        32        32        17        30        20        21        18        15        17        18        20        22        24        26 
dram[1]:        31        29        32        32        16        22        19        20        16        15        17        17        21        21        25        25 
dram[2]:        30        29        32        32        16        22        20        20        16        16        18        16        21        22        25        26 
dram[3]:        30        29        32        32        19        22        21        19        15        16        16        15        20        20        25        25 
dram[4]:        30        30        32        31        18        20        21        19        16        16        17        17        20        21        25        25 
dram[5]:        30        31        32        32        22        32        20        19        15        16        17        17        21        21        26        26 
maximum service time to same row:
dram[0]:    170646    172159    199888    200197    164275    156415    141304    148544    115909    112737     89073     91897    115541    117784    142727    145647 
dram[1]:    173967    170747    201972    201750    170551    134492    137140    146047    121536    113052     90171     95775    116546    117891    145385    143913 
dram[2]:    169322    174507    199956    201375    149124    159443    143655    148383    119410    117909     92867     92647    117318    118907    143154    144683 
dram[3]:    174569    171773    201200    200502    173657    162046    146211    146091    105610    115762     91089     90474    118064    118464    143519    144647 
dram[4]:    173373    176697    201471    199491    150814    163430    146095    145825    120958    119007     95347     91680    118097    118641    143910    146566 
dram[5]:    171981    172990    198913    205287    177109    164598    142975    148866    110096    118647     94204     90572    120194    118538    142584    144762 
average row accesses per activate:
dram[0]: 11.300000  9.545455 43.000000 44.500000 10.600000 18.000000 11.000000 10.666667  9.142858  9.500000 10.916667 10.750000  9.500000 10.916667 10.750000 10.750000 
dram[1]: 16.428572 11.555555 41.500000 44.000000 21.200001 10.700000  9.571428  9.357142 10.666667 10.916667 10.666667  9.214286 12.900000 10.833333  9.428572  8.250000 
dram[2]: 16.000000 11.555555 43.500000 45.500000 15.857142 13.625000 10.750000  9.285714  9.142858 12.900000 13.000000  9.142858 10.750000 10.750000  9.285714 10.833333 
dram[3]: 15.714286 11.777778 44.000000 43.500000 21.600000 13.875000 12.900000  9.500000  8.062500 10.833333 10.916667  9.285714  9.214286  9.500000  9.357142  9.285714 
dram[4]: 15.285714 15.428572 43.000000 43.500000 18.500000 14.000000 10.750000  9.357142 10.916667 10.666667 10.916667  9.142858  9.214286 11.083333  8.187500 10.833333 
dram[5]: 15.000000 20.799999 43.500000 43.000000 13.750000 27.500000 10.750000 10.750000  9.357142 10.666667 10.916667 10.833333 13.000000  9.500000  9.500000 13.100000 
average row locality = 11457/970 = 11.811340
number of total memory accesses made:
dram[0]:         0         0         0         0         0         0         0         0         0         0         0         0         0         0         0         0 
dram[1]:         0         0         0         0         0         0         0         0         0         0         0         0         0         0         0         0 
dram[2]:         0         0         0         0         0         0         0         0         0         0         0         0         0         0         0         0 
dram[3]:         0         0         0         0         0         0         0         0         0         0         0         0         0         0         0         0 
dram[4]:         0         0         0         0         0         0         0         0         0         0         0         0         0         0         0         0 
dram[5]:         0         0         0         0         0         0         0         0         0         0         0         0         0         0         0         0 
total accesses: 0
min_bank_accesses = 0!
min_chip_accesses = 0!
number of total read accesses:
dram[0]:        89        84        64        64        74        74        96        96        96        96        96        96        96        96        96        96 
dram[1]:        88        84        63        64        74        74        96        96        96        96        96        96        96        96        96        96 
dram[2]:        86        84        64        64        74        76        96        96        96        96        96        96        96        96        96        96 
dram[3]:        86        84        64        64        74        76        96        96        96        96        96        96        96        96        96        96 
dram[4]:        85        84        64        63        74        76        96        96        96        96        96        96        96        96        96        96 
dram[5]:        84        84        64        64        74        76        96        96        96        96        96        96        96        96        96        96 
total reads: 8444
bank skew: 96/63 = 1.52
chip skew: 1409/1406 = 1.00
number of total write accesses:
dram[0]:        24        21        22        25        32        34        36        32        32        37        35        33        37        35        33        33 
dram[1]:        27        20        20        24        32        33        38        35        32        35        32        33        33        34        36        36 
dram[2]:        26        20        23        27        37        33        33        34        32        33        34        32        33        33        34        34 
dram[3]:        24        22        24        23        34        35        33        37        33        34        35        34        33        37        35        34 
dram[4]:        22        24        22        24        37        36        33        35        35        32        35        32        33        37        35        34 
dram[5]:        21        20        23        22        36        34        33        33        35        32        35        34        34        37        37        35 
total reads: 3013
bank skew: 38/20 = 1.90
chip skew: 507/498 = 1.02
average mf latency per bank:
dram[0]:      33188     24766     18787     19526     23004     18552     19333     20947     20587     20057     21090     19856     20385     19689     20144     21297
dram[1]:      23669     23647     21046     18980     20937     18421     21386     20850     21786     20222     22013     20230     20474     19657     21945     20347
dram[2]:      23782     26025     20051     20156     21056     19788     21588     20541     21666     22339     21180     21534     21245     21432     20278     22276
dram[3]:      23536     23365     18144     19087     19784     18185     20500     21359     22429     20612     21412     19677     20427     19921     21107     20341
dram[4]:      24174     24527     21578     17687     20398     19406     20941     20426     20401     21599     20154     21371     20348     20843     20879     20939
dram[5]:      25203     25305     19959     22527     19904     18342     21134     21549     21658     21730     20335     20534     20669     21363     21278     21120
maximum mf latency per bank:
dram[0]:       6416     10116      7446      9264      7910     11253      7512      9539      9058      9631      8604      8361      6115     11181      9713      7977
dram[1]:      10265      7273      8344     10360     10573      7475      9851      8763     11706      8979     11226     11217      7799     10853      9670      6700
dram[2]:       6630      9162     10362      9189      7954      8722      8869      8132     10082     11699     11221      7743      7412      8917      8105      8952
dram[3]:       8978     10634      9796      9467      9517     10842      8764      9540     10920     11595      8889     11386     10985      7329      6896      9594
dram[4]:       9138     11803      9252      9797     10879     11616      8180      9652     11585      8828     10121      8073      7328     10604      9659      8153
dram[5]:      11753     10284      9465      9302     11133     10862     11170      9535      9360      8080      8599     10112      7896     10542      9786      6973

Number of Memory Banks Accessed per Memory Operation per Warp (from 0):
0	0	0	0	0	0	0	0	0	0	0	0	0	0	0	0	0	0	0	0	0	0	0	0	0	0	0	0	0	0	0	0	0	0	0	0	0	0	0	0	0	0	0	0	0	0	0	0	0	0	0	0	0	0	0	0	0	0	0	0	0	0	0	0	0	0	0	0	0	0	0	0	0	0	0	0	0	0	0	0	0	0	0	0	0	0	0	0	0	0	0	0	0	0	0	0	
Average # of Memory Banks Accessed per Memory Operation per Warp=-nan

position of mrq chosen
0	0	0	0	0	0	0	0	0	0	0	0	0	0	0	0	

average position of mrq chosen = -nan
Memory Partition 0: 
Cache L2_bank_000:
MSHR contents

Cache L2_bank_001:
MSHR contents

In Dram Latency Queue (total = 0): 
DRAM[0]: 16 bks, busW=4 BL=8 CL=12, tRRD=2 tCCD=6, tRCD=12 tRAS=28 tRP=12 tRC=40
n_cmd=314848 n_nop=311113 n_act=167 n_pre=151 n_req=1910 n_rd=2818 n_write=599 bw_util=0.02171
n_activity=27586 dram_eff=0.2477
bk0: 178a 313606i bk1: 168a 313695i bk2: 128a 314024i bk3: 128a 314098i bk4: 148a 313399i bk5: 148a 313730i bk6: 192a 313361i bk7: 192a 313331i bk8: 192a 313401i bk9: 192a 313340i bk10: 192a 313372i bk11: 192a 313540i bk12: 192a 313424i bk13: 192a 313407i bk14: 192a 313282i bk15: 192a 313320i 
dram_util_bins: 0 0 0 0 0 0 0 0 0 0
dram_eff_bins: 0 0 0 0 0 0 0 0 0 0
mrqq: max=14 avg=0.0233192
Memory Partition 1: 
Cache L2_bank_002:
MSHR contents

Cache L2_bank_003:
MSHR contents

In Dram Latency Queue (total = 0): 
DRAM[1]: 16 bks, busW=4 BL=8 CL=12, tRRD=2 tCCD=6, tRCD=12 tRAS=28 tRP=12 tRC=40
n_cmd=314848 n_nop=311157 n_act=165 n_pre=149 n_req=1907 n_rd=2814 n_write=563 bw_util=0.02145
n_activity=27700 dram_eff=0.2438
bk0: 176a 313818i bk1: 168a 313785i bk2: 126a 314136i bk3: 128a 314030i bk4: 148a 313813i bk5: 148a 313576i bk6: 192a 313349i bk7: 192a 313326i bk8: 192a 313538i bk9: 192a 313486i bk10: 192a 313399i bk11: 192a 313429i bk12: 192a 313535i bk13: 192a 313415i bk14: 192a 313361i bk15: 192a 313340i 
dram_util_bins: 0 0 0 0 0 0 0 0 0 0
dram_eff_bins: 0 0 0 0 0 0 0 0 0 0
mrqq: max=9 avg=0.0171416
Memory Partition 2: 
Cache L2_bank_004:
MSHR contents

Cache L2_bank_005:
MSHR contents

In Dram Latency Queue (total = 0): 
DRAM[2]: 16 bks, busW=4 BL=8 CL=12, tRRD=2 tCCD=6, tRCD=12 tRAS=28 tRP=12 tRC=40
n_cmd=314848 n_nop=311141 n_act=159 n_pre=143 n_req=1906 n_rd=2816 n_write=589 bw_util=0.02163
n_activity=27340 dram_eff=0.2491
bk0: 172a 313734i bk1: 168a 313867i bk2: 128a 313939i bk3: 128a 313937i bk4: 148a 313436i bk5: 152a 313488i bk6: 192a 313381i bk7: 192a 313484i bk8: 192a 313386i bk9: 192a 313561i bk10: 192a 313387i bk11: 192a 313309i bk12: 192a 313330i bk13: 192a 313471i bk14: 192a 313299i bk15: 192a 313212i 
dram_util_bins: 0 0 0 0 0 0 0 0 0 0
dram_eff_bins: 0 0 0 0 0 0 0 0 0 0
mrqq: max=10 avg=0.021315
Memory Partition 3: 
Cache L2_bank_006:
MSHR contents

Cache L2_bank_007:
MSHR contents

In Dram Latency Queue (total = 0): 
DRAM[3]: 16 bks, busW=4 BL=8 CL=12, tRRD=2 tCCD=6, tRCD=12 tRAS=28 tRP=12 tRC=40
n_cmd=314848 n_nop=311119 n_act=167 n_pre=151 n_req=1915 n_rd=2816 n_write=595 bw_util=0.02167
n_activity=27891 dram_eff=0.2446
bk0: 172a 313865i bk1: 168a 313810i bk2: 128a 313992i bk3: 128a 314001i bk4: 148a 313494i bk5: 152a 313616i bk6: 192a 313574i bk7: 192a 313302i bk8: 192a 313374i bk9: 192a 313384i bk10: 192a 313351i bk11: 192a 313379i bk12: 192a 313308i bk13: 192a 313384i bk14: 192a 313288i bk15: 192a 313149i 
dram_util_bins: 0 0 0 0 0 0 0 0 0 0
dram_eff_bins: 0 0 0 0 0 0 0 0 0 0
mrqq: max=7 avg=0.0207878
Memory Partition 4: 
Cache L2_bank_008:
MSHR contents

Cache L2_bank_009:
MSHR contents

In Dram Latency Queue (total = 0): 
DRAM[4]: 16 bks, busW=4 BL=8 CL=12, tRRD=2 tCCD=6, tRCD=12 tRAS=28 tRP=12 tRC=40
n_cmd=314848 n_nop=311159 n_act=162 n_pre=146 n_req=1912 n_rd=2812 n_write=569 bw_util=0.02148
n_activity=27401 dram_eff=0.2468
bk0: 170a 313823i bk1: 168a 313821i bk2: 128a 314030i bk3: 126a 313985i bk4: 148a 313861i bk5: 152a 313681i bk6: 192a 313485i bk7: 192a 313434i bk8: 192a 313461i bk9: 192a 313435i bk10: 192a 313428i bk11: 192a 313460i bk12: 192a 313352i bk13: 192a 313464i bk14: 192a 313248i bk15: 192a 313340i 
dram_util_bins: 0 0 0 0 0 0 0 0 0 0
dram_eff_bins: 0 0 0 0 0 0 0 0 0 0
mrqq: max=8 avg=0.0196095
Memory Partition 5: 
Cache L2_bank_010:
MSHR contents

Cache L2_bank_011:
MSHR contents

In Dram Latency Queue (total = 0): 
DRAM[5]: 16 bks, busW=4 BL=8 CL=12, tRRD=2 tCCD=6, tRCD=12 tRAS=28 tRP=12 tRC=40
n_cmd=314848 n_nop=311157 n_act=150 n_pre=134 n_req=1907 n_rd=2812 n_write=595 bw_util=0.02164
n_activity=27314 dram_eff=0.2495
bk0: 168a 313756i bk1: 168a 313939i bk2: 128a 314017i bk3: 128a 314041i bk4: 148a 313565i bk5: 152a 313816i bk6: 192a 313595i bk7: 192a 313380i bk8: 192a 313390i bk9: 192a 313395i bk10: 192a 313366i bk11: 192a 313421i bk12: 192a 313405i bk13: 192a 313296i bk14: 192a 313346i bk15: 192a 313439i 
dram_util_bins: 0 0 0 0 0 0 0 0 0 0
dram_eff_bins: 0 0 0 0 0 0 0 0 0 0
mrqq: max=11 avg=0.0240624

========= L2 cache stats =========
L2_cache_bank[0]: Access = 25277, Miss = 707, Miss_rate = 0.028, Pending_hits = 434, Reservation_fails = 3383
L2_cache_bank[1]: Access = 23749, Miss = 702, Miss_rate = 0.030, Pending_hits = 454, Reservation_fails = 4038
L2_cache_bank[2]: Access = 24830, Miss = 705, Miss_rate = 0.028, Pending_hits = 431, Reservation_fails = 2958
L2_cache_bank[3]: Access = 23836, Miss = 702, Miss_rate = 0.029, Pending_hits = 423, Reservation_fails = 2998
L2_cache_bank[4]: Access = 23854, Miss = 704, Miss_rate = 0.030, Pending_hits = 437, Reservation_fails = 4422
L2_cache_bank[5]: Access = 23916, Miss = 704, Miss_rate = 0.029, Pending_hits = 438, Reservation_fails = 3779
L2_cache_bank[6]: Access = 23705, Miss = 704, Miss_rate = 0.030, Pending_hits = 445, Reservation_fails = 4510
L2_cache_bank[7]: Access = 23729, Miss = 704, Miss_rate = 0.030, Pending_hits = 416, Reservation_fails = 3552
L2_cache_bank[8]: Access = 23881, Miss = 703, Miss_rate = 0.029, Pending_hits = 436, Reservation_fails = 3580
L2_cache_bank[9]: Access = 23862, Miss = 703, Miss_rate = 0.029, Pending_hits = 442, Reservation_fails = 4394
L2_cache_bank[10]: Access = 23877, Miss = 702, Miss_rate = 0.029, Pending_hits = 431, Reservation_fails = 4077
L2_cache_bank[11]: Access = 23954, Miss = 704, Miss_rate = 0.029, Pending_hits = 438, Reservation_fails = 3543
L2_total_cache_accesses = 288470
L2_total_cache_misses = 8444
L2_total_cache_miss_rate = 0.0293
L2_total_cache_pending_hits = 5225
L2_total_cache_reservation_fails = 45234
L2_total_cache_breakdown:
	L2_cache_stats_breakdown[GLOBAL_ACC_R][HIT] = 261643
	L2_cache_stats_breakdown[GLOBAL_ACC_R][HIT_RESERVED] = 5016
	L2_cache_stats_breakdown[GLOBAL_ACC_R][MISS] = 5626
	L2_cache_stats_breakdown[GLOBAL_ACC_R][RESERVATION_FAIL] = 45055
	L2_cache_stats_breakdown[CONST_ACC_R][HIT] = 476
	L2_cache_stats_breakdown[CONST_ACC_R][HIT_RESERVED] = 3
	L2_cache_stats_breakdown[CONST_ACC_R][MISS] = 1
	L2_cache_stats_breakdown[GLOBAL_ACC_W][HIT] = 10772
	L2_cache_stats_breakdown[GLOBAL_ACC_W][HIT_RESERVED] = 200
	L2_cache_stats_breakdown[GLOBAL_ACC_W][MISS] = 2813
	L2_cache_stats_breakdown[GLOBAL_ACC_W][RESERVATION_FAIL] = 63
	L2_cache_stats_breakdown[INST_ACC_R][HIT] = 1910
	L2_cache_stats_breakdown[INST_ACC_R][HIT_RESERVED] = 6
	L2_cache_stats_breakdown[INST_ACC_R][MISS] = 4
	L2_cache_stats_breakdown[INST_ACC_R][RESERVATION_FAIL] = 116
L2_cache_data_port_util = 0.375
L2_cache_fill_port_util = 0.012

icnt_total_pkts_mem_to_simt=1386250
icnt_total_pkts_simt_to_mem=312680
LD_mem_lat_dist  0 0 0 0 0 0 0 0 0 0 0 0 0 0 0 0 0 0 0 0 0 0 0 0 0 0 0
ST_mem_lat_dist  0 0 0 0 0 0 0 0 0 0 0 0 0 0 0 0 0 0 0 0 0 0 0 0 0 0 0
----------------------------Interconnect-DETAILS--------------------------------
Class 0:
Packet latency average = 106.645
	minimum = 6
	maximum = 2003
Network latency average = 60.5249
	minimum = 6
	maximum = 1004
Slowest packet = 175
Flit latency average = 30.207
	minimum = 6
	maximum = 1004
Slowest flit = 175
Fragmentation average = 0.00815683
	minimum = 0
	maximum = 349
Injected packet rate average = 0.0895856
	minimum = 0.0805335 (at node 3)
	maximum = 0.105973 (at node 15)
Accepted packet rate average = 0.0895856
	minimum = 0.0805335 (at node 3)
	maximum = 0.105973 (at node 15)
Injected flit rate average = 0.263805
	minimum = 0.0872079 (at node 3)
	maximum = 0.506691 (at node 15)
Accepted flit rate average= 0.263805
	minimum = 0.107906 (at node 22)
	maximum = 0.387906 (at node 14)
Injected packet length average = 2.94473
Accepted packet length average = 2.94473
Total in-flight flits = 0 (0 measured)
====== Overall Traffic Statistics ======
====== Traffic class 0 ======
Packet latency average = 106.645 (1 samples)
	minimum = 6 (1 samples)
	maximum = 2003 (1 samples)
Network latency average = 60.5249 (1 samples)
	minimum = 6 (1 samples)
	maximum = 1004 (1 samples)
Flit latency average = 30.207 (1 samples)
	minimum = 6 (1 samples)
	maximum = 1004 (1 samples)
Fragmentation average = 0.00815683 (1 samples)
	minimum = 0 (1 samples)
	maximum = 349 (1 samples)
Injected packet rate average = 0.0895856 (1 samples)
	minimum = 0.0805335 (1 samples)
	maximum = 0.105973 (1 samples)
Accepted packet rate average = 0.0895856 (1 samples)
	minimum = 0.0805335 (1 samples)
	maximum = 0.105973 (1 samples)
Injected flit rate average = 0.263805 (1 samples)
	minimum = 0.0872079 (1 samples)
	maximum = 0.506691 (1 samples)
Accepted flit rate average = 0.263805 (1 samples)
	minimum = 0.107906 (1 samples)
	maximum = 0.387906 (1 samples)
Injected packet size average = 2.94473 (1 samples)
Accepted packet size average = 2.94473 (1 samples)
Hops average = 1 (1 samples)
----------------------------END-of-Interconnect-DETAILS-------------------------


gpgpu_simulation_time = 0 days, 0 hrs, 32 min, 41 sec (1961 sec)
gpgpu_simulation_rate = 125568 (inst/sec)
gpgpu_simulation_rate = 121 (cycle/sec)
total time is 1961593 ms
2021-06-14T11:06:07+08:00
